*Heading
** Job name: cook_2d Model name: cook_2d
*Preprint, echo=NO, model=NO, history=NO, contact=NO
**
** PARTS
**
*Part, name=cpe3h_04
*Node
      1,           0.,           0.
      2,          12.,          11.
      3,          24.,          22.
      4,          36.,          33.
      5,          48.,          44.
      6,           0.,          11.
      7,          12.,        20.25
      8,          24.,         29.5
      9,          36.,        38.75
     10,          48.,          48.
     11,           0.,          22.
     12,          12.,         29.5
     13,          24.,          37.
     14,          36.,         44.5
     15,          48.,          52.
     16,           0.,          33.
     17,          12.,        38.75
     18,          24.,         44.5
     19,          36.,        50.25
     20,          48.,          56.
** ... 5 like lines cut
*Element, type=CPE3H
 1,  1,  2,  6
 2,  2,  7,  6
 3,  2,  3,  7
 4,  3,  8,  7
 5,  3,  4,  8
 6,  4,  9,  8
 7,  4,  5,  9
 8,  5, 10,  9
 9,  6,  7, 11
10,  7, 12, 11
11,  7,  8, 12
12,  8, 13, 12
13,  8,  9, 13
14,  9, 14, 13
15,  9, 10, 14
16, 10, 15, 14
17, 11, 12, 16
18, 12, 17, 16
19, 12, 13, 17
20, 13, 18, 17
** ... 12 like lines cut
*Node
     26,          48.,          52.,           0.
*Nset, nset=cpe3h_04-RefPt_, internal
26, 
*Nset, nset=_PickedSet2, internal, generate
  1,  25,   1
*Elset, elset=_PickedSet2, internal, generate
  1,  32,   1
*Nset, nset=Fix, generate
  1,  21,   5
*Elset, elset=Fix, generate
  1,  25,   8
*Nset, nset=Set-1
  1,  2,  3,  4,  5,  6, 10, 11, 15, 16, 20, 21, 22, 23, 24, 25
*Elset, elset=Set-1
  1,  3,  5,  7,  8,  9, 16, 17, 24, 25, 26, 28, 30, 32
*Nset, nset=Corner
 25,
*Nset, nset=RP
 26,
*Elset, elset=_Constraint_S1, internal, generate
  8,  32,   8
*Surface, type=ELEMENT, name=Constraint
_Constraint_S1, S1
** Section: Section-1
*Solid Section, elset=_PickedSet2, material=Material-1
1.,
*End Part
**  
*Part, name=cpe3h_08
*Node
      1,           0.,           0.
      2,           6.,          5.5
      3,          12.,          11.
      4,          18.,         16.5
      5,          24.,          22.
      6,          30.,         27.5
      7,          36.,          33.
      8,          42.,         38.5
      9,          48.,          44.
     10,           0.,          5.5
     11,           6.,      10.5625
     12,          12.,       15.625
     13,          18.,      20.6875
     14,          24.,        25.75
     15,          30.,      30.8125
     16,          36.,       35.875
     17,          42.,      40.9375
     18,          48.,          46.
     19,           0.,          11.
     20,           6.,       15.625
** ... 61 like lines cut
*Element, type=CPE3H
  1,  1,  2, 10
  2,  2, 11, 10
  3,  2,  3, 11
  4,  3, 12, 11
  5,  3,  4, 12
  6,  4, 13, 12
  7,  4,  5, 13
  8,  5, 14, 13
  9,  5,  6, 14
 10,  6, 15, 14
 11,  6,  7, 15
 12,  7, 16, 15
 13,  7,  8, 16
 14,  8, 17, 16
 15,  8,  9, 17
 16,  9, 18, 17
 17, 10, 11, 19
 18, 11, 20, 19
 19, 11, 12, 20
 20, 12, 21, 20
** ... 108 like lines cut
*Node
     82,          48.,          52.,           0.
*Nset, nset=cpe3h_08-RefPt_, internal
82, 
*Nset, nset=_PickedSet2, internal, generate
  1,  81,   1
*Elset, elset=_PickedSet2, internal, generate
   1,  128,    1
*Nset, nset=Fix, generate
  1,  73,   9
*Elset, elset=Fix, generate
   1,  113,   16
*Nset, nset=Set-1
  1,  2,  3,  4,  5,  6,  7,  8,  9, 10, 18, 19, 27, 28, 36, 37
 45, 46, 54, 55, 63, 64, 72, 73, 74, 75, 76, 77, 78, 79, 80, 81
*Elset, elset=Set-1
   1,   3,   5,   7,   9,  11,  13,  15,  16,  17,  32,  33,  48,  49,  64,  65
  80,  81,  96,  97, 112, 113, 114, 116, 118, 120, 122, 124, 126, 128
*Nset, nset=Corner
 81,
*Nset, nset=RP
 82,
*Elset, elset=_Constraint_S1, internal, generate
  16,  128,   16
*Surface, type=ELEMENT, name=Constraint
_Constraint_S1, S1
** Section: Section-1
*Solid Section, elset=_PickedSet2, material=Material-1
1.,
*End Part
**  
*Part, name=cpe3h_16
*Node
      1,           0.,           0.
      2,           3.,         2.75
      3,           6.,          5.5
      4,           9.,         8.25
      5,          12.,          11.
      6,          15.,        13.75
      7,          18.,         16.5
      8,          21.,        19.25
      9,          24.,          22.
     10,          27.,        24.75
     11,          30.,         27.5
     12,          33.,        30.25
     13,          36.,          33.
     14,          39.,        35.75
     15,          42.,         38.5
     16,          45.,        41.25
     17,          48.,          44.
     18,           0.,         2.75
     19,           3.,     5.390625
     20,           6.,      8.03125
** ... 269 like lines cut
*Element, type=CPE3H
  1,   1,   2,  18
  2,   2,  19,  18
  3,   2,   3,  19
  4,   3,  20,  19
  5,   3,   4,  20
  6,   4,  21,  20
  7,   4,   5,  21
  8,   5,  22,  21
  9,   5,   6,  22
 10,   6,  23,  22
 11,   6,   7,  23
 12,   7,  24,  23
 13,   7,   8,  24
 14,   8,  25,  24
 15,   8,   9,  25
 16,   9,  26,  25
 17,   9,  10,  26
 18,  10,  27,  26
 19,  10,  11,  27
 20,  11,  28,  27
** ... 492 like lines cut
*Node
    290,          48.,          52.,           0.
*Nset, nset=cpe3h_16-RefPt_, internal
290, 
*Nset, nset=_PickedSet2, internal, generate
   1,  289,    1
*Elset, elset=_PickedSet2, internal, generate
   1,  512,    1
*Nset, nset=Fix, generate
   1,  273,   17
*Elset, elset=Fix, generate
   1,  481,   32
*Nset, nset=Set-1
   1,   2,   3,   4,   5,   6,   7,   8,   9,  10,  11,  12,  13,  14,  15,  16
  17,  18,  34,  35,  51,  52,  68,  69,  85,  86, 102, 103, 119, 120, 136, 137
 153, 154, 170, 171, 187, 188, 204, 205, 221, 222, 238, 239, 255, 256, 272, 273
 274, 275, 276, 277, 278, 279, 280, 281, 282, 283, 284, 285, 286, 287, 288, 289
*Elset, elset=Set-1
   1,   3,   5,   7,   9,  11,  13,  15,  17,  19,  21,  23,  25,  27,  29,  31
  32,  33,  64,  65,  96,  97, 128, 129, 160, 161, 192, 193, 224, 225, 256, 257
 288, 289, 320, 321, 352, 353, 384, 385, 416, 417, 448, 449, 480, 481, 482, 484
 486, 488, 490, 492, 494, 496, 498, 500, 502, 504, 506, 508, 510, 512
*Nset, nset=Corner
 289,
*Nset, nset=RP
 290,
*Elset, elset=_Constraint_S1, internal, generate
  32,  512,   32
*Surface, type=ELEMENT, name=Constraint
_Constraint_S1, S1
** Section: Section-1
*Solid Section, elset=_PickedSet2, material=Material-1
1.,
*End Part
**  
*Part, name=cpe3h_32
*Node
      1,           0.,           0.
      2,          1.5,        1.375
      3,           3.,         2.75
      4,          4.5,        4.125
      5,           6.,          5.5
      6,          7.5,        6.875
      7,           9.,         8.25
      8,         10.5,        9.625
      9,          12.,          11.
     10,         13.5,       12.375
     11,          15.,        13.75
     12,         16.5,       15.125
     13,          18.,         16.5
     14,         19.5,       17.875
     15,          21.,        19.25
     16,         22.5,       20.625
     17,          24.,          22.
     18,         25.5,       23.375
     19,          27.,        24.75
     20,         28.5,       26.125
** ... 1069 like lines cut
*Element, type=CPE3H
   1,    1,    2,   34
   2,    2,   35,   34
   3,    2,    3,   35
   4,    3,   36,   35
   5,    3,    4,   36
   6,    4,   37,   36
   7,    4,    5,   37
   8,    5,   38,   37
   9,    5,    6,   38
  10,    6,   39,   38
  11,    6,    7,   39
  12,    7,   40,   39
  13,    7,    8,   40
  14,    8,   41,   40
  15,    8,    9,   41
  16,    9,   42,   41
  17,    9,   10,   42
  18,   10,   43,   42
  19,   10,   11,   43
  20,   11,   44,   43
** ... 2028 like lines cut
*Node
   1090,          48.,          52.,           0.
*Nset, nset=cpe3h_32-RefPt_, internal
1090, 
*Nset, nset=_PickedSet2, internal, generate
    1,  1089,     1
*Elset, elset=_PickedSet2, internal, generate
    1,  2048,     1
*Nset, nset=Fix, generate
    1,  1057,    33
*Elset, elset=Fix, generate
    1,  1985,    64
*Nset, nset=Set-1
    1,    2,    3,    4,    5,    6,    7,    8,    9,   10,   11,   12,   13,   14,   15,   16
   17,   18,   19,   20,   21,   22,   23,   24,   25,   26,   27,   28,   29,   30,   31,   32
   33,   34,   66,   67,   99,  100,  132,  133,  165,  166,  198,  199,  231,  232,  264,  265
  297,  298,  330,  331,  363,  364,  396,  397,  429,  430,  462,  463,  495,  496,  528,  529
  561,  562,  594,  595,  627,  628,  660,  661,  693,  694,  726,  727,  759,  760,  792,  793
  825,  826,  858,  859,  891,  892,  924,  925,  957,  958,  990,  991, 1023, 1024, 1056, 1057
 1058, 1059, 1060, 1061, 1062, 1063, 1064, 1065, 1066, 1067, 1068, 1069, 1070, 1071, 1072, 1073
 1074, 1075, 1076, 1077, 1078, 1079, 1080, 1081, 1082, 1083, 1084, 1085, 1086, 1087, 1088, 1089
*Elset, elset=Set-1
    1,    3,    5,    7,    9,   11,   13,   15,   17,   19,   21,   23,   25,   27,   29,   31
   33,   35,   37,   39,   41,   43,   45,   47,   49,   51,   53,   55,   57,   59,   61,   63
   64,   65,  128,  129,  192,  193,  256,  257,  320,  321,  384,  385,  448,  449,  512,  513
  576,  577,  640,  641,  704,  705,  768,  769,  832,  833,  896,  897,  960,  961, 1024, 1025
 1088, 1089, 1152, 1153, 1216, 1217, 1280, 1281, 1344, 1345, 1408, 1409, 1472, 1473, 1536, 1537
 1600, 1601, 1664, 1665, 1728, 1729, 1792, 1793, 1856, 1857, 1920, 1921, 1984, 1985, 1986, 1988
 1990, 1992, 1994, 1996, 1998, 2000, 2002, 2004, 2006, 2008, 2010, 2012, 2014, 2016, 2018, 2020
 2022, 2024, 2026, 2028, 2030, 2032, 2034, 2036, 2038, 2040, 2042, 2044, 2046, 2048
*Nset, nset=Corner
 1089,
*Nset, nset=RP
 1090,
*Elset, elset=_Constraint_S1, internal, generate
   64,  2048,    64
*Surface, type=ELEMENT, name=Constraint
_Constraint_S1, S1
** Section: Section-1
*Solid Section, elset=_PickedSet2, material=Material-1
1.,
*End Part
**  
*Part, name=cpe4h_04
*Node
      1,           0.,           0.
      2,          12.,          11.
      3,          24.,          22.
      4,          36.,          33.
      5,          48.,          44.
      6,           0.,          11.
      7,          12.,        20.25
      8,          24.,         29.5
      9,          36.,        38.75
     10,          48.,          48.
     11,           0.,          22.
     12,          12.,         29.5
     13,          24.,          37.
     14,          36.,         44.5
     15,          48.,          52.
     16,           0.,          33.
     17,          12.,        38.75
     18,          24.,         44.5
     19,          36.,        50.25
     20,          48.,          56.
** ... 5 like lines cut
*Element, type=CPE4H
 1,  1,  2,  7,  6
 2,  2,  3,  8,  7
 3,  3,  4,  9,  8
 4,  4,  5, 10,  9
 5,  6,  7, 12, 11
 6,  7,  8, 13, 12
 7,  8,  9, 14, 13
 8,  9, 10, 15, 14
 9, 11, 12, 17, 16
10, 12, 13, 18, 17
11, 13, 14, 19, 18
12, 14, 15, 20, 19
13, 16, 17, 22, 21
14, 17, 18, 23, 22
15, 18, 19, 24, 23
16, 19, 20, 25, 24
*Node
     26,          48.,          52.,           0.
*Nset, nset=cpe4h_04-RefPt_, internal
26, 
*Nset, nset=_PickedSet2, internal, generate
  1,  25,   1
*Elset, elset=_PickedSet2, internal, generate
  1,  16,   1
*Nset, nset=Fix, generate
  1,  21,   5
*Elset, elset=Fix, generate
  1,  13,   4
*Nset, nset=Set-1
  1,  2,  3,  4,  5,  6, 10, 11, 15, 16, 20, 21, 22, 23, 24, 25
*Elset, elset=Set-1
  1,  2,  3,  4,  5,  8,  9, 12, 13, 14, 15, 16
*Nset, nset=Corner
 25,
*Nset, nset=RP
 26,
*Elset, elset=_Constraint_S2, internal, generate
  4,  16,   4
*Surface, type=ELEMENT, name=Constraint
_Constraint_S2, S2
** Section: Section-1
*Solid Section, elset=_PickedSet2, material=Material-1
1.,
*End Part
**  
*Part, name=cpe4h_08
*Node
      1,           0.,           0.
      2,           6.,          5.5
      3,          12.,          11.
      4,          18.,         16.5
      5,          24.,          22.
      6,          30.,         27.5
      7,          36.,          33.
      8,          42.,         38.5
      9,          48.,          44.
     10,           0.,          5.5
     11,           6.,      10.5625
     12,          12.,       15.625
     13,          18.,      20.6875
     14,          24.,        25.75
     15,          30.,      30.8125
     16,          36.,       35.875
     17,          42.,      40.9375
     18,          48.,          46.
     19,           0.,          11.
     20,           6.,       15.625
** ... 61 like lines cut
*Element, type=CPE4H
 1,  1,  2, 11, 10
 2,  2,  3, 12, 11
 3,  3,  4, 13, 12
 4,  4,  5, 14, 13
 5,  5,  6, 15, 14
 6,  6,  7, 16, 15
 7,  7,  8, 17, 16
 8,  8,  9, 18, 17
 9, 10, 11, 20, 19
10, 11, 12, 21, 20
11, 12, 13, 22, 21
12, 13, 14, 23, 22
13, 14, 15, 24, 23
14, 15, 16, 25, 24
15, 16, 17, 26, 25
16, 17, 18, 27, 26
17, 19, 20, 29, 28
18, 20, 21, 30, 29
19, 21, 22, 31, 30
20, 22, 23, 32, 31
** ... 44 like lines cut
*Node
     82,          48.,          52.,           0.
*Nset, nset=cpe4h_08-RefPt_, internal
82, 
*Nset, nset=_PickedSet2, internal, generate
  1,  81,   1
*Elset, elset=_PickedSet2, internal, generate
  1,  64,   1
*Nset, nset=Fix, generate
  1,  73,   9
*Elset, elset=Fix, generate
  1,  57,   8
*Nset, nset=Set-1
  1,  2,  3,  4,  5,  6,  7,  8,  9, 10, 18, 19, 27, 28, 36, 37
 45, 46, 54, 55, 63, 64, 72, 73, 74, 75, 76, 77, 78, 79, 80, 81
*Elset, elset=Set-1
  1,  2,  3,  4,  5,  6,  7,  8,  9, 16, 17, 24, 25, 32, 33, 40
 41, 48, 49, 56, 57, 58, 59, 60, 61, 62, 63, 64
*Nset, nset=Corner
 81,
*Nset, nset=RP
 82,
*Elset, elset=_Constraint_S2, internal, generate
  8,  64,   8
*Surface, type=ELEMENT, name=Constraint
_Constraint_S2, S2
** Section: Section-1
*Solid Section, elset=_PickedSet2, material=Material-1
1.,
*End Part
**  
*Part, name=cpe4h_16
*Node
      1,           0.,           0.
      2,           3.,         2.75
      3,           6.,          5.5
      4,           9.,         8.25
      5,          12.,          11.
      6,          15.,        13.75
      7,          18.,         16.5
      8,          21.,        19.25
      9,          24.,          22.
     10,          27.,        24.75
     11,          30.,         27.5
     12,          33.,        30.25
     13,          36.,          33.
     14,          39.,        35.75
     15,          42.,         38.5
     16,          45.,        41.25
     17,          48.,          44.
     18,           0.,         2.75
     19,           3.,     5.390625
     20,           6.,      8.03125
** ... 269 like lines cut
*Element, type=CPE4H
  1,   1,   2,  19,  18
  2,   2,   3,  20,  19
  3,   3,   4,  21,  20
  4,   4,   5,  22,  21
  5,   5,   6,  23,  22
  6,   6,   7,  24,  23
  7,   7,   8,  25,  24
  8,   8,   9,  26,  25
  9,   9,  10,  27,  26
 10,  10,  11,  28,  27
 11,  11,  12,  29,  28
 12,  12,  13,  30,  29
 13,  13,  14,  31,  30
 14,  14,  15,  32,  31
 15,  15,  16,  33,  32
 16,  16,  17,  34,  33
 17,  18,  19,  36,  35
 18,  19,  20,  37,  36
 19,  20,  21,  38,  37
 20,  21,  22,  39,  38
** ... 236 like lines cut
*Node
    290,          48.,          52.,           0.
*Nset, nset=cpe4h_16-RefPt_, internal
290, 
*Nset, nset=_PickedSet2, internal, generate
   1,  289,    1
*Elset, elset=_PickedSet2, internal, generate
   1,  256,    1
*Nset, nset=Fix, generate
   1,  273,   17
*Elset, elset=Fix, generate
   1,  241,   16
*Nset, nset=Set-1
   1,   2,   3,   4,   5,   6,   7,   8,   9,  10,  11,  12,  13,  14,  15,  16
  17,  18,  34,  35,  51,  52,  68,  69,  85,  86, 102, 103, 119, 120, 136, 137
 153, 154, 170, 171, 187, 188, 204, 205, 221, 222, 238, 239, 255, 256, 272, 273
 274, 275, 276, 277, 278, 279, 280, 281, 282, 283, 284, 285, 286, 287, 288, 289
*Elset, elset=Set-1
   1,   2,   3,   4,   5,   6,   7,   8,   9,  10,  11,  12,  13,  14,  15,  16
  17,  32,  33,  48,  49,  64,  65,  80,  81,  96,  97, 112, 113, 128, 129, 144
 145, 160, 161, 176, 177, 192, 193, 208, 209, 224, 225, 240, 241, 242, 243, 244
 245, 246, 247, 248, 249, 250, 251, 252, 253, 254, 255, 256
*Nset, nset=Corner
 289,
*Nset, nset=RP
 290,
*Elset, elset=_Constraint_S2, internal, generate
  16,  256,   16
*Surface, type=ELEMENT, name=Constraint
_Constraint_S2, S2
** Section: Section-1
*Solid Section, elset=_PickedSet2, material=Material-1
1.,
*End Part
**  
*Part, name=cpe4h_32
*Node
      1,           0.,           0.
      2,          1.5,        1.375
      3,           3.,         2.75
      4,          4.5,        4.125
      5,           6.,          5.5
      6,          7.5,        6.875
      7,           9.,         8.25
      8,         10.5,        9.625
      9,          12.,          11.
     10,         13.5,       12.375
     11,          15.,        13.75
     12,         16.5,       15.125
     13,          18.,         16.5
     14,         19.5,       17.875
     15,          21.,        19.25
     16,         22.5,       20.625
     17,          24.,          22.
     18,         25.5,       23.375
     19,          27.,        24.75
     20,         28.5,       26.125
** ... 1069 like lines cut
*Element, type=CPE4H
   1,    1,    2,   35,   34
   2,    2,    3,   36,   35
   3,    3,    4,   37,   36
   4,    4,    5,   38,   37
   5,    5,    6,   39,   38
   6,    6,    7,   40,   39
   7,    7,    8,   41,   40
   8,    8,    9,   42,   41
   9,    9,   10,   43,   42
  10,   10,   11,   44,   43
  11,   11,   12,   45,   44
  12,   12,   13,   46,   45
  13,   13,   14,   47,   46
  14,   14,   15,   48,   47
  15,   15,   16,   49,   48
  16,   16,   17,   50,   49
  17,   17,   18,   51,   50
  18,   18,   19,   52,   51
  19,   19,   20,   53,   52
  20,   20,   21,   54,   53
** ... 1004 like lines cut
*Node
   1090,          48.,          52.,           0.
*Nset, nset=cpe4h_32-RefPt_, internal
1090, 
*Nset, nset=_PickedSet2, internal, generate
    1,  1089,     1
*Elset, elset=_PickedSet2, internal, generate
    1,  1024,     1
*Nset, nset=Fix, generate
    1,  1057,    33
*Elset, elset=Fix, generate
   1,  993,   32
*Nset, nset=Set-1
    1,    2,    3,    4,    5,    6,    7,    8,    9,   10,   11,   12,   13,   14,   15,   16
   17,   18,   19,   20,   21,   22,   23,   24,   25,   26,   27,   28,   29,   30,   31,   32
   33,   34,   66,   67,   99,  100,  132,  133,  165,  166,  198,  199,  231,  232,  264,  265
  297,  298,  330,  331,  363,  364,  396,  397,  429,  430,  462,  463,  495,  496,  528,  529
  561,  562,  594,  595,  627,  628,  660,  661,  693,  694,  726,  727,  759,  760,  792,  793
  825,  826,  858,  859,  891,  892,  924,  925,  957,  958,  990,  991, 1023, 1024, 1056, 1057
 1058, 1059, 1060, 1061, 1062, 1063, 1064, 1065, 1066, 1067, 1068, 1069, 1070, 1071, 1072, 1073
 1074, 1075, 1076, 1077, 1078, 1079, 1080, 1081, 1082, 1083, 1084, 1085, 1086, 1087, 1088, 1089
*Elset, elset=Set-1
    1,    2,    3,    4,    5,    6,    7,    8,    9,   10,   11,   12,   13,   14,   15,   16
   17,   18,   19,   20,   21,   22,   23,   24,   25,   26,   27,   28,   29,   30,   31,   32
   33,   64,   65,   96,   97,  128,  129,  160,  161,  192,  193,  224,  225,  256,  257,  288
  289,  320,  321,  352,  353,  384,  385,  416,  417,  448,  449,  480,  481,  512,  513,  544
  545,  576,  577,  608,  609,  640,  641,  672,  673,  704,  705,  736,  737,  768,  769,  800
  801,  832,  833,  864,  865,  896,  897,  928,  929,  960,  961,  992,  993,  994,  995,  996
  997,  998,  999, 1000, 1001, 1002, 1003, 1004, 1005, 1006, 1007, 1008, 1009, 1010, 1011, 1012
 1013, 1014, 1015, 1016, 1017, 1018, 1019, 1020, 1021, 1022, 1023, 1024
*Nset, nset=Corner
 1089,
*Nset, nset=RP
 1090,
*Elset, elset=_Constraint_S2, internal, generate
   32,  1024,    32
*Surface, type=ELEMENT, name=Constraint
_Constraint_S2, S2
** Section: Section-1
*Solid Section, elset=_PickedSet2, material=Material-1
1.,
*End Part
**  
*Part, name=cpe4ih_04
*Node
      1,           0.,           0.
      2,          12.,          11.
      3,          24.,          22.
      4,          36.,          33.
      5,          48.,          44.
      6,           0.,          11.
      7,          12.,        20.25
      8,          24.,         29.5
      9,          36.,        38.75
     10,          48.,          48.
     11,           0.,          22.
     12,          12.,         29.5
     13,          24.,          37.
     14,          36.,         44.5
     15,          48.,          52.
     16,           0.,          33.
     17,          12.,        38.75
     18,          24.,         44.5
     19,          36.,        50.25
     20,          48.,          56.
** ... 5 like lines cut
*Element, type=CPE4IH
 1,  1,  2,  7,  6
 2,  2,  3,  8,  7
 3,  3,  4,  9,  8
 4,  4,  5, 10,  9
 5,  6,  7, 12, 11
 6,  7,  8, 13, 12
 7,  8,  9, 14, 13
 8,  9, 10, 15, 14
 9, 11, 12, 17, 16
10, 12, 13, 18, 17
11, 13, 14, 19, 18
12, 14, 15, 20, 19
13, 16, 17, 22, 21
14, 17, 18, 23, 22
15, 18, 19, 24, 23
16, 19, 20, 25, 24
*Node
     26,          48.,          52.,           0.
*Nset, nset=cpe4ih_04-RefPt_, internal
26, 
*Nset, nset=_PickedSet2, internal, generate
  1,  25,   1
*Elset, elset=_PickedSet2, internal, generate
  1,  16,   1
*Nset, nset=Fix, generate
  1,  21,   5
*Elset, elset=Fix, generate
  1,  13,   4
*Nset, nset=Set-1
  1,  2,  3,  4,  5,  6, 10, 11, 15, 16, 20, 21, 22, 23, 24, 25
*Elset, elset=Set-1
  1,  2,  3,  4,  5,  8,  9, 12, 13, 14, 15, 16
*Nset, nset=Corner
 25,
*Nset, nset=RP
 26,
*Elset, elset=_Constraint_S2, internal, generate
  4,  16,   4
*Surface, type=ELEMENT, name=Constraint
_Constraint_S2, S2
** Section: Section-1
*Solid Section, elset=_PickedSet2, material=Material-1
1.,
*End Part
**  
*Part, name=cpe4ih_08
*Node
      1,           0.,           0.
      2,           6.,          5.5
      3,          12.,          11.
      4,          18.,         16.5
      5,          24.,          22.
      6,          30.,         27.5
      7,          36.,          33.
      8,          42.,         38.5
      9,          48.,          44.
     10,           0.,          5.5
     11,           6.,      10.5625
     12,          12.,       15.625
     13,          18.,      20.6875
     14,          24.,        25.75
     15,          30.,      30.8125
     16,          36.,       35.875
     17,          42.,      40.9375
     18,          48.,          46.
     19,           0.,          11.
     20,           6.,       15.625
** ... 61 like lines cut
*Element, type=CPE4IH
 1,  1,  2, 11, 10
 2,  2,  3, 12, 11
 3,  3,  4, 13, 12
 4,  4,  5, 14, 13
 5,  5,  6, 15, 14
 6,  6,  7, 16, 15
 7,  7,  8, 17, 16
 8,  8,  9, 18, 17
 9, 10, 11, 20, 19
10, 11, 12, 21, 20
11, 12, 13, 22, 21
12, 13, 14, 23, 22
13, 14, 15, 24, 23
14, 15, 16, 25, 24
15, 16, 17, 26, 25
16, 17, 18, 27, 26
17, 19, 20, 29, 28
18, 20, 21, 30, 29
19, 21, 22, 31, 30
20, 22, 23, 32, 31
** ... 44 like lines cut
*Node
     82,          48.,          52.,           0.
*Nset, nset=cpe4ih_08-RefPt_, internal
82, 
*Nset, nset=_PickedSet2, internal, generate
  1,  81,   1
*Elset, elset=_PickedSet2, internal, generate
  1,  64,   1
*Nset, nset=Fix, generate
  1,  73,   9
*Elset, elset=Fix, generate
  1,  57,   8
*Nset, nset=Set-1
  1,  2,  3,  4,  5,  6,  7,  8,  9, 10, 18, 19, 27, 28, 36, 37
 45, 46, 54, 55, 63, 64, 72, 73, 74, 75, 76, 77, 78, 79, 80, 81
*Elset, elset=Set-1
  1,  2,  3,  4,  5,  6,  7,  8,  9, 16, 17, 24, 25, 32, 33, 40
 41, 48, 49, 56, 57, 58, 59, 60, 61, 62, 63, 64
*Nset, nset=Corner
 81,
*Nset, nset=RP
 82,
*Elset, elset=_Constraint_S2, internal, generate
  8,  64,   8
*Surface, type=ELEMENT, name=Constraint
_Constraint_S2, S2
** Section: Section-1
*Solid Section, elset=_PickedSet2, material=Material-1
1.,
*End Part
**  
*Part, name=cpe4ih_16
*Node
      1,           0.,           0.
      2,           3.,         2.75
      3,           6.,          5.5
      4,           9.,         8.25
      5,          12.,          11.
      6,          15.,        13.75
      7,          18.,         16.5
      8,          21.,        19.25
      9,          24.,          22.
     10,          27.,        24.75
     11,          30.,         27.5
     12,          33.,        30.25
     13,          36.,          33.
     14,          39.,        35.75
     15,          42.,         38.5
     16,          45.,        41.25
     17,          48.,          44.
     18,           0.,         2.75
     19,           3.,     5.390625
     20,           6.,      8.03125
** ... 269 like lines cut
*Element, type=CPE4IH
  1,   1,   2,  19,  18
  2,   2,   3,  20,  19
  3,   3,   4,  21,  20
  4,   4,   5,  22,  21
  5,   5,   6,  23,  22
  6,   6,   7,  24,  23
  7,   7,   8,  25,  24
  8,   8,   9,  26,  25
  9,   9,  10,  27,  26
 10,  10,  11,  28,  27
 11,  11,  12,  29,  28
 12,  12,  13,  30,  29
 13,  13,  14,  31,  30
 14,  14,  15,  32,  31
 15,  15,  16,  33,  32
 16,  16,  17,  34,  33
 17,  18,  19,  36,  35
 18,  19,  20,  37,  36
 19,  20,  21,  38,  37
 20,  21,  22,  39,  38
** ... 236 like lines cut
*Node
    290,          48.,          52.,           0.
*Nset, nset=cpe4ih_16-RefPt_, internal
290, 
*Nset, nset=_PickedSet2, internal, generate
   1,  289,    1
*Elset, elset=_PickedSet2, internal, generate
   1,  256,    1
*Nset, nset=Fix, generate
   1,  273,   17
*Elset, elset=Fix, generate
   1,  241,   16
*Nset, nset=Set-1
   1,   2,   3,   4,   5,   6,   7,   8,   9,  10,  11,  12,  13,  14,  15,  16
  17,  18,  34,  35,  51,  52,  68,  69,  85,  86, 102, 103, 119, 120, 136, 137
 153, 154, 170, 171, 187, 188, 204, 205, 221, 222, 238, 239, 255, 256, 272, 273
 274, 275, 276, 277, 278, 279, 280, 281, 282, 283, 284, 285, 286, 287, 288, 289
*Elset, elset=Set-1
   1,   2,   3,   4,   5,   6,   7,   8,   9,  10,  11,  12,  13,  14,  15,  16
  17,  32,  33,  48,  49,  64,  65,  80,  81,  96,  97, 112, 113, 128, 129, 144
 145, 160, 161, 176, 177, 192, 193, 208, 209, 224, 225, 240, 241, 242, 243, 244
 245, 246, 247, 248, 249, 250, 251, 252, 253, 254, 255, 256
*Nset, nset=Corner
 289,
*Nset, nset=RP
 290,
*Elset, elset=_Constraint_S2, internal, generate
  16,  256,   16
*Surface, type=ELEMENT, name=Constraint
_Constraint_S2, S2
** Section: Section-1
*Solid Section, elset=_PickedSet2, material=Material-1
1.,
*End Part
**  
*Part, name=cpe4ih_32
*Node
      1,           0.,           0.
      2,          1.5,        1.375
      3,           3.,         2.75
      4,          4.5,        4.125
      5,           6.,          5.5
      6,          7.5,        6.875
      7,           9.,         8.25
      8,         10.5,        9.625
      9,          12.,          11.
     10,         13.5,       12.375
     11,          15.,        13.75
     12,         16.5,       15.125
     13,          18.,         16.5
     14,         19.5,       17.875
     15,          21.,        19.25
     16,         22.5,       20.625
     17,          24.,          22.
     18,         25.5,       23.375
     19,          27.,        24.75
     20,         28.5,       26.125
** ... 1069 like lines cut
*Element, type=CPE4IH
   1,    1,    2,   35,   34
   2,    2,    3,   36,   35
   3,    3,    4,   37,   36
   4,    4,    5,   38,   37
   5,    5,    6,   39,   38
   6,    6,    7,   40,   39
   7,    7,    8,   41,   40
   8,    8,    9,   42,   41
   9,    9,   10,   43,   42
  10,   10,   11,   44,   43
  11,   11,   12,   45,   44
  12,   12,   13,   46,   45
  13,   13,   14,   47,   46
  14,   14,   15,   48,   47
  15,   15,   16,   49,   48
  16,   16,   17,   50,   49
  17,   17,   18,   51,   50
  18,   18,   19,   52,   51
  19,   19,   20,   53,   52
  20,   20,   21,   54,   53
** ... 1004 like lines cut
*Node
   1090,          48.,          52.,           0.
*Nset, nset=cpe4ih_32-RefPt_, internal
1090, 
*Nset, nset=_PickedSet2, internal, generate
    1,  1089,     1
*Elset, elset=_PickedSet2, internal, generate
    1,  1024,     1
*Nset, nset=Fix, generate
    1,  1057,    33
*Elset, elset=Fix, generate
   1,  993,   32
*Nset, nset=Set-1
    1,    2,    3,    4,    5,    6,    7,    8,    9,   10,   11,   12,   13,   14,   15,   16
   17,   18,   19,   20,   21,   22,   23,   24,   25,   26,   27,   28,   29,   30,   31,   32
   33,   34,   66,   67,   99,  100,  132,  133,  165,  166,  198,  199,  231,  232,  264,  265
  297,  298,  330,  331,  363,  364,  396,  397,  429,  430,  462,  463,  495,  496,  528,  529
  561,  562,  594,  595,  627,  628,  660,  661,  693,  694,  726,  727,  759,  760,  792,  793
  825,  826,  858,  859,  891,  892,  924,  925,  957,  958,  990,  991, 1023, 1024, 1056, 1057
 1058, 1059, 1060, 1061, 1062, 1063, 1064, 1065, 1066, 1067, 1068, 1069, 1070, 1071, 1072, 1073
 1074, 1075, 1076, 1077, 1078, 1079, 1080, 1081, 1082, 1083, 1084, 1085, 1086, 1087, 1088, 1089
*Elset, elset=Set-1
    1,    2,    3,    4,    5,    6,    7,    8,    9,   10,   11,   12,   13,   14,   15,   16
   17,   18,   19,   20,   21,   22,   23,   24,   25,   26,   27,   28,   29,   30,   31,   32
   33,   64,   65,   96,   97,  128,  129,  160,  161,  192,  193,  224,  225,  256,  257,  288
  289,  320,  321,  352,  353,  384,  385,  416,  417,  448,  449,  480,  481,  512,  513,  544
  545,  576,  577,  608,  609,  640,  641,  672,  673,  704,  705,  736,  737,  768,  769,  800
  801,  832,  833,  864,  865,  896,  897,  928,  929,  960,  961,  992,  993,  994,  995,  996
  997,  998,  999, 1000, 1001, 1002, 1003, 1004, 1005, 1006, 1007, 1008, 1009, 1010, 1011, 1012
 1013, 1014, 1015, 1016, 1017, 1018, 1019, 1020, 1021, 1022, 1023, 1024
*Nset, nset=Corner
 1089,
*Nset, nset=RP
 1090,
*Elset, elset=_Constraint_S2, internal, generate
   32,  1024,    32
*Surface, type=ELEMENT, name=Constraint
_Constraint_S2, S2
** Section: Section-1
*Solid Section, elset=_PickedSet2, material=Material-1
1.,
*End Part
**  
*Part, name=cpe4rh_04
*Node
      1,           0.,           0.
      2,          12.,          11.
      3,          24.,          22.
      4,          36.,          33.
      5,          48.,          44.
      6,           0.,          11.
      7,          12.,        20.25
      8,          24.,         29.5
      9,          36.,        38.75
     10,          48.,          48.
     11,           0.,          22.
     12,          12.,         29.5
     13,          24.,          37.
     14,          36.,         44.5
     15,          48.,          52.
     16,           0.,          33.
     17,          12.,        38.75
     18,          24.,         44.5
     19,          36.,        50.25
     20,          48.,          56.
** ... 5 like lines cut
*Element, type=CPE4RH
 1,  1,  2,  7,  6
 2,  2,  3,  8,  7
 3,  3,  4,  9,  8
 4,  4,  5, 10,  9
 5,  6,  7, 12, 11
 6,  7,  8, 13, 12
 7,  8,  9, 14, 13
 8,  9, 10, 15, 14
 9, 11, 12, 17, 16
10, 12, 13, 18, 17
11, 13, 14, 19, 18
12, 14, 15, 20, 19
13, 16, 17, 22, 21
14, 17, 18, 23, 22
15, 18, 19, 24, 23
16, 19, 20, 25, 24
*Node
     26,          48.,          52.,           0.
*Nset, nset=cpe4rh_04-RefPt_, internal
26, 
*Nset, nset=_PickedSet2, internal, generate
  1,  25,   1
*Elset, elset=_PickedSet2, internal, generate
  1,  16,   1
*Nset, nset=Fix, generate
  1,  21,   5
*Elset, elset=Fix, generate
  1,  13,   4
*Nset, nset=Set-1
  1,  2,  3,  4,  5,  6, 10, 11, 15, 16, 20, 21, 22, 23, 24, 25
*Elset, elset=Set-1
  1,  2,  3,  4,  5,  8,  9, 12, 13, 14, 15, 16
*Nset, nset=Corner
 25,
*Nset, nset=RP
 26,
*Elset, elset=_Constraint_S2, internal, generate
  4,  16,   4
*Surface, type=ELEMENT, name=Constraint
_Constraint_S2, S2
** Section: Section-1
*Solid Section, elset=_PickedSet2, material=Material-1
1.,
*End Part
**  
*Part, name=cpe4rh_08
*Node
      1,           0.,           0.
      2,           6.,          5.5
      3,          12.,          11.
      4,          18.,         16.5
      5,          24.,          22.
      6,          30.,         27.5
      7,          36.,          33.
      8,          42.,         38.5
      9,          48.,          44.
     10,           0.,          5.5
     11,           6.,      10.5625
     12,          12.,       15.625
     13,          18.,      20.6875
     14,          24.,        25.75
     15,          30.,      30.8125
     16,          36.,       35.875
     17,          42.,      40.9375
     18,          48.,          46.
     19,           0.,          11.
     20,           6.,       15.625
** ... 61 like lines cut
*Element, type=CPE4RH
 1,  1,  2, 11, 10
 2,  2,  3, 12, 11
 3,  3,  4, 13, 12
 4,  4,  5, 14, 13
 5,  5,  6, 15, 14
 6,  6,  7, 16, 15
 7,  7,  8, 17, 16
 8,  8,  9, 18, 17
 9, 10, 11, 20, 19
10, 11, 12, 21, 20
11, 12, 13, 22, 21
12, 13, 14, 23, 22
13, 14, 15, 24, 23
14, 15, 16, 25, 24
15, 16, 17, 26, 25
16, 17, 18, 27, 26
17, 19, 20, 29, 28
18, 20, 21, 30, 29
19, 21, 22, 31, 30
20, 22, 23, 32, 31
** ... 44 like lines cut
*Node
     82,          48.,          52.,           0.
*Nset, nset=cpe4rh_08-RefPt_, internal
82, 
*Nset, nset=_PickedSet2, internal, generate
  1,  81,   1
*Elset, elset=_PickedSet2, internal, generate
  1,  64,   1
*Nset, nset=Fix, generate
  1,  73,   9
*Elset, elset=Fix, generate
  1,  57,   8
*Nset, nset=Set-1
  1,  2,  3,  4,  5,  6,  7,  8,  9, 10, 18, 19, 27, 28, 36, 37
 45, 46, 54, 55, 63, 64, 72, 73, 74, 75, 76, 77, 78, 79, 80, 81
*Elset, elset=Set-1
  1,  2,  3,  4,  5,  6,  7,  8,  9, 16, 17, 24, 25, 32, 33, 40
 41, 48, 49, 56, 57, 58, 59, 60, 61, 62, 63, 64
*Nset, nset=Corner
 81,
*Nset, nset=RP
 82,
*Elset, elset=_Constraint_S2, internal, generate
  8,  64,   8
*Surface, type=ELEMENT, name=Constraint
_Constraint_S2, S2
** Section: Section-1
*Solid Section, elset=_PickedSet2, material=Material-1
1.,
*End Part
**  
*Part, name=cpe4rh_16
*Node
      1,           0.,           0.
      2,           3.,         2.75
      3,           6.,          5.5
      4,           9.,         8.25
      5,          12.,          11.
      6,          15.,        13.75
      7,          18.,         16.5
      8,          21.,        19.25
      9,          24.,          22.
     10,          27.,        24.75
     11,          30.,         27.5
     12,          33.,        30.25
     13,          36.,          33.
     14,          39.,        35.75
     15,          42.,         38.5
     16,          45.,        41.25
     17,          48.,          44.
     18,           0.,         2.75
     19,           3.,     5.390625
     20,           6.,      8.03125
** ... 269 like lines cut
*Element, type=CPE4RH
  1,   1,   2,  19,  18
  2,   2,   3,  20,  19
  3,   3,   4,  21,  20
  4,   4,   5,  22,  21
  5,   5,   6,  23,  22
  6,   6,   7,  24,  23
  7,   7,   8,  25,  24
  8,   8,   9,  26,  25
  9,   9,  10,  27,  26
 10,  10,  11,  28,  27
 11,  11,  12,  29,  28
 12,  12,  13,  30,  29
 13,  13,  14,  31,  30
 14,  14,  15,  32,  31
 15,  15,  16,  33,  32
 16,  16,  17,  34,  33
 17,  18,  19,  36,  35
 18,  19,  20,  37,  36
 19,  20,  21,  38,  37
 20,  21,  22,  39,  38
** ... 236 like lines cut
*Node
    290,          48.,          52.,           0.
*Nset, nset=cpe4rh_16-RefPt_, internal
290, 
*Nset, nset=_PickedSet2, internal, generate
   1,  289,    1
*Elset, elset=_PickedSet2, internal, generate
   1,  256,    1
*Nset, nset=Fix, generate
   1,  273,   17
*Elset, elset=Fix, generate
   1,  241,   16
*Nset, nset=Set-1
   1,   2,   3,   4,   5,   6,   7,   8,   9,  10,  11,  12,  13,  14,  15,  16
  17,  18,  34,  35,  51,  52,  68,  69,  85,  86, 102, 103, 119, 120, 136, 137
 153, 154, 170, 171, 187, 188, 204, 205, 221, 222, 238, 239, 255, 256, 272, 273
 274, 275, 276, 277, 278, 279, 280, 281, 282, 283, 284, 285, 286, 287, 288, 289
*Elset, elset=Set-1
   1,   2,   3,   4,   5,   6,   7,   8,   9,  10,  11,  12,  13,  14,  15,  16
  17,  32,  33,  48,  49,  64,  65,  80,  81,  96,  97, 112, 113, 128, 129, 144
 145, 160, 161, 176, 177, 192, 193, 208, 209, 224, 225, 240, 241, 242, 243, 244
 245, 246, 247, 248, 249, 250, 251, 252, 253, 254, 255, 256
*Nset, nset=Corner
 289,
*Nset, nset=RP
 290,
*Elset, elset=_Constraint_S2, internal, generate
  16,  256,   16
*Surface, type=ELEMENT, name=Constraint
_Constraint_S2, S2
** Section: Section-1
*Solid Section, elset=_PickedSet2, material=Material-1
1.,
*End Part
**  
*Part, name=cpe4rh_32
*Node
      1,           0.,           0.
      2,          1.5,        1.375
      3,           3.,         2.75
      4,          4.5,        4.125
      5,           6.,          5.5
      6,          7.5,        6.875
      7,           9.,         8.25
      8,         10.5,        9.625
      9,          12.,          11.
     10,         13.5,       12.375
     11,          15.,        13.75
     12,         16.5,       15.125
     13,          18.,         16.5
     14,         19.5,       17.875
     15,          21.,        19.25
     16,         22.5,       20.625
     17,          24.,          22.
     18,         25.5,       23.375
     19,          27.,        24.75
     20,         28.5,       26.125
** ... 1069 like lines cut
*Element, type=CPE4RH
   1,    1,    2,   35,   34
   2,    2,    3,   36,   35
   3,    3,    4,   37,   36
   4,    4,    5,   38,   37
   5,    5,    6,   39,   38
   6,    6,    7,   40,   39
   7,    7,    8,   41,   40
   8,    8,    9,   42,   41
   9,    9,   10,   43,   42
  10,   10,   11,   44,   43
  11,   11,   12,   45,   44
  12,   12,   13,   46,   45
  13,   13,   14,   47,   46
  14,   14,   15,   48,   47
  15,   15,   16,   49,   48
  16,   16,   17,   50,   49
  17,   17,   18,   51,   50
  18,   18,   19,   52,   51
  19,   19,   20,   53,   52
  20,   20,   21,   54,   53
** ... 1004 like lines cut
*Node
   1090,          48.,          52.,           0.
*Nset, nset=cpe4rh_32-RefPt_, internal
1090, 
*Nset, nset=_PickedSet2, internal, generate
    1,  1089,     1
*Elset, elset=_PickedSet2, internal, generate
    1,  1024,     1
*Nset, nset=Fix, generate
    1,  1057,    33
*Elset, elset=Fix, generate
   1,  993,   32
*Nset, nset=Set-1
    1,    2,    3,    4,    5,    6,    7,    8,    9,   10,   11,   12,   13,   14,   15,   16
   17,   18,   19,   20,   21,   22,   23,   24,   25,   26,   27,   28,   29,   30,   31,   32
   33,   34,   66,   67,   99,  100,  132,  133,  165,  166,  198,  199,  231,  232,  264,  265
  297,  298,  330,  331,  363,  364,  396,  397,  429,  430,  462,  463,  495,  496,  528,  529
  561,  562,  594,  595,  627,  628,  660,  661,  693,  694,  726,  727,  759,  760,  792,  793
  825,  826,  858,  859,  891,  892,  924,  925,  957,  958,  990,  991, 1023, 1024, 1056, 1057
 1058, 1059, 1060, 1061, 1062, 1063, 1064, 1065, 1066, 1067, 1068, 1069, 1070, 1071, 1072, 1073
 1074, 1075, 1076, 1077, 1078, 1079, 1080, 1081, 1082, 1083, 1084, 1085, 1086, 1087, 1088, 1089
*Elset, elset=Set-1
    1,    2,    3,    4,    5,    6,    7,    8,    9,   10,   11,   12,   13,   14,   15,   16
   17,   18,   19,   20,   21,   22,   23,   24,   25,   26,   27,   28,   29,   30,   31,   32
   33,   64,   65,   96,   97,  128,  129,  160,  161,  192,  193,  224,  225,  256,  257,  288
  289,  320,  321,  352,  353,  384,  385,  416,  417,  448,  449,  480,  481,  512,  513,  544
  545,  576,  577,  608,  609,  640,  641,  672,  673,  704,  705,  736,  737,  768,  769,  800
  801,  832,  833,  864,  865,  896,  897,  928,  929,  960,  961,  992,  993,  994,  995,  996
  997,  998,  999, 1000, 1001, 1002, 1003, 1004, 1005, 1006, 1007, 1008, 1009, 1010, 1011, 1012
 1013, 1014, 1015, 1016, 1017, 1018, 1019, 1020, 1021, 1022, 1023, 1024
*Nset, nset=Corner
 1089,
*Nset, nset=RP
 1090,
*Elset, elset=_Constraint_S2, internal, generate
   32,  1024,    32
*Surface, type=ELEMENT, name=Constraint
_Constraint_S2, S2
** Section: Section-1
*Solid Section, elset=_PickedSet2, material=Material-1
1.,
*End Part
**  
*Part, name=cpe6h_04
*Node
      1,           0.,           0.
      2,          12.,          11.
      3,          24.,          22.
      4,          36.,          33.
      5,          48.,          44.
      6,           0.,          11.
      7,          12.,        20.25
      8,          24.,         29.5
      9,          36.,        38.75
     10,          48.,          48.
     11,           0.,          22.
     12,          12.,         29.5
     13,          24.,          37.
     14,          36.,         44.5
     15,          48.,          52.
     16,           0.,          33.
     17,          12.,        38.75
     18,          24.,         44.5
     19,          36.,        50.25
     20,          48.,          56.
** ... 61 like lines cut
*Element, type=CPE6H
 1,  1,  2,  6, 26, 27, 28
 2,  2,  7,  6, 29, 30, 27
 3,  2,  3,  7, 31, 32, 29
 4,  3,  8,  7, 33, 34, 32
 5,  3,  4,  8, 35, 36, 33
 6,  4,  9,  8, 37, 38, 36
 7,  4,  5,  9, 39, 40, 37
 8,  5, 10,  9, 41, 42, 40
 9,  6,  7, 11, 30, 43, 44
10,  7, 12, 11, 45, 46, 43
11,  7,  8, 12, 34, 47, 45
12,  8, 13, 12, 48, 49, 47
13,  8,  9, 13, 38, 50, 48
14,  9, 14, 13, 51, 52, 50
15,  9, 10, 14, 42, 53, 51
16, 10, 15, 14, 54, 55, 53
17, 11, 12, 16, 46, 56, 57
18, 12, 17, 16, 58, 59, 56
19, 12, 13, 17, 49, 60, 58
20, 13, 18, 17, 61, 62, 60
** ... 12 like lines cut
*Node
     82,          48.,          52.,           0.
*Nset, nset=cpe6h_04-RefPt_, internal
82, 
*Nset, nset=_PickedSet2, internal, generate
  1,  81,   1
*Elset, elset=_PickedSet2, internal, generate
  1,  32,   1
*Nset, nset=Fix
  1,  6, 11, 16, 21, 28, 44, 57, 70
*Elset, elset=Fix, generate
  1,  25,   8
*Nset, nset=Set-1
  1,  2,  3,  4,  5,  6, 10, 11, 15, 16, 20, 21, 22, 23, 24, 25
 26, 28, 31, 35, 39, 41, 44, 54, 57, 67, 70, 72, 75, 78, 80, 81
*Elset, elset=Set-1
  1,  3,  5,  7,  8,  9, 16, 17, 24, 25, 26, 28, 30, 32
*Nset, nset=Corner
 25,
*Nset, nset=RP
 82,
*Elset, elset=_Constraint_S1, internal, generate
  8,  32,   8
*Surface, type=ELEMENT, name=Constraint
_Constraint_S1, S1
** Section: Section-1
*Solid Section, elset=_PickedSet2, material=Material-1
1.,
*End Part
**  
*Part, name=cpe6h_08
*Node
      1,           0.,           0.
      2,           6.,          5.5
      3,          12.,          11.
      4,          18.,         16.5
      5,          24.,          22.
      6,          30.,         27.5
      7,          36.,          33.
      8,          42.,         38.5
      9,          48.,          44.
     10,           0.,          5.5
     11,           6.,      10.5625
     12,          12.,       15.625
     13,          18.,      20.6875
     14,          24.,        25.75
     15,          30.,      30.8125
     16,          36.,       35.875
     17,          42.,      40.9375
     18,          48.,          46.
     19,           0.,          11.
     20,           6.,       15.625
** ... 269 like lines cut
*Element, type=CPE6H
  1,   1,   2,  10,  82,  83,  84
  2,   2,  11,  10,  85,  86,  83
  3,   2,   3,  11,  87,  88,  85
  4,   3,  12,  11,  89,  90,  88
  5,   3,   4,  12,  91,  92,  89
  6,   4,  13,  12,  93,  94,  92
  7,   4,   5,  13,  95,  96,  93
  8,   5,  14,  13,  97,  98,  96
  9,   5,   6,  14,  99, 100,  97
 10,   6,  15,  14, 101, 102, 100
 11,   6,   7,  15, 103, 104, 101
 12,   7,  16,  15, 105, 106, 104
 13,   7,   8,  16, 107, 108, 105
 14,   8,  17,  16, 109, 110, 108
 15,   8,   9,  17, 111, 112, 109
 16,   9,  18,  17, 113, 114, 112
 17,  10,  11,  19,  86, 115, 116
 18,  11,  20,  19, 117, 118, 115
 19,  11,  12,  20,  90, 119, 117
 20,  12,  21,  20, 120, 121, 119
** ... 108 like lines cut
*Node
    290,          48.,          52.,           0.
*Nset, nset=cpe6h_08-RefPt_, internal
290, 
*Nset, nset=_PickedSet2, internal, generate
   1,  289,    1
*Elset, elset=_PickedSet2, internal, generate
   1,  128,    1
*Nset, nset=Fix
   1,  10,  19,  28,  37,  46,  55,  64,  73,  84, 116, 141, 166, 191, 216, 241
 266,
*Elset, elset=Fix, generate
   1,  113,   16
*Nset, nset=Set-1
   1,   2,   3,   4,   5,   6,   7,   8,   9,  10,  18,  19,  27,  28,  36,  37
  45,  46,  54,  55,  63,  64,  72,  73,  74,  75,  76,  77,  78,  79,  80,  81
  82,  84,  87,  91,  95,  99, 103, 107, 111, 113, 116, 138, 141, 163, 166, 188
 191, 213, 216, 238, 241, 263, 266, 268, 271, 274, 277, 280, 283, 286, 288, 289
*Elset, elset=Set-1
   1,   3,   5,   7,   9,  11,  13,  15,  16,  17,  32,  33,  48,  49,  64,  65
  80,  81,  96,  97, 112, 113, 114, 116, 118, 120, 122, 124, 126, 128
*Nset, nset=Corner
 81,
*Nset, nset=RP
 290,
*Elset, elset=_Constraint_S1, internal, generate
  16,  128,   16
*Surface, type=ELEMENT, name=Constraint
_Constraint_S1, S1
** Section: Section-1
*Solid Section, elset=_PickedSet2, material=Material-1
1.,
*End Part
**  
*Part, name=cpe6h_16
*Node
      1,           0.,           0.
      2,           3.,         2.75
      3,           6.,          5.5
      4,           9.,         8.25
      5,          12.,          11.
      6,          15.,        13.75
      7,          18.,         16.5
      8,          21.,        19.25
      9,          24.,          22.
     10,          27.,        24.75
     11,          30.,         27.5
     12,          33.,        30.25
     13,          36.,          33.
     14,          39.,        35.75
     15,          42.,         38.5
     16,          45.,        41.25
     17,          48.,          44.
     18,           0.,         2.75
     19,           3.,     5.390625
     20,           6.,      8.03125
** ... 1069 like lines cut
*Element, type=CPE6H
  1,    1,    2,   18,  290,  291,  292
  2,    2,   19,   18,  293,  294,  291
  3,    2,    3,   19,  295,  296,  293
  4,    3,   20,   19,  297,  298,  296
  5,    3,    4,   20,  299,  300,  297
  6,    4,   21,   20,  301,  302,  300
  7,    4,    5,   21,  303,  304,  301
  8,    5,   22,   21,  305,  306,  304
  9,    5,    6,   22,  307,  308,  305
 10,    6,   23,   22,  309,  310,  308
 11,    6,    7,   23,  311,  312,  309
 12,    7,   24,   23,  313,  314,  312
 13,    7,    8,   24,  315,  316,  313
 14,    8,   25,   24,  317,  318,  316
 15,    8,    9,   25,  319,  320,  317
 16,    9,   26,   25,  321,  322,  320
 17,    9,   10,   26,  323,  324,  321
 18,   10,   27,   26,  325,  326,  324
 19,   10,   11,   27,  327,  328,  325
 20,   11,   28,   27,  329,  330,  328
** ... 492 like lines cut
*Node
   1090,          48.,          52.,           0.
*Nset, nset=cpe6h_16-RefPt_, internal
1090, 
*Nset, nset=_PickedSet2, internal, generate
    1,  1089,     1
*Elset, elset=_PickedSet2, internal, generate
   1,  512,    1
*Nset, nset=Fix
    1,   18,   35,   52,   69,   86,  103,  120,  137,  154,  171,  188,  205,  222,  239,  256
  273,  292,  356,  405,  454,  503,  552,  601,  650,  699,  748,  797,  846,  895,  944,  993
 1042,
*Elset, elset=Fix, generate
   1,  481,   32
*Nset, nset=Set-1
    1,    2,    3,    4,    5,    6,    7,    8,    9,   10,   11,   12,   13,   14,   15,   16
   17,   18,   34,   35,   51,   52,   68,   69,   85,   86,  102,  103,  119,  120,  136,  137
  153,  154,  170,  171,  187,  188,  204,  205,  221,  222,  238,  239,  255,  256,  272,  273
  274,  275,  276,  277,  278,  279,  280,  281,  282,  283,  284,  285,  286,  287,  288,  289
  290,  292,  295,  299,  303,  307,  311,  315,  319,  323,  327,  331,  335,  339,  343,  347
  351,  353,  356,  402,  405,  451,  454,  500,  503,  549,  552,  598,  601,  647,  650,  696
  699,  745,  748,  794,  797,  843,  846,  892,  895,  941,  944,  990,  993, 1039, 1042, 1044
 1047, 1050, 1053, 1056, 1059, 1062, 1065, 1068, 1071, 1074, 1077, 1080, 1083, 1086, 1088, 1089
*Elset, elset=Set-1
   1,   3,   5,   7,   9,  11,  13,  15,  17,  19,  21,  23,  25,  27,  29,  31
  32,  33,  64,  65,  96,  97, 128, 129, 160, 161, 192, 193, 224, 225, 256, 257
 288, 289, 320, 321, 352, 353, 384, 385, 416, 417, 448, 449, 480, 481, 482, 484
 486, 488, 490, 492, 494, 496, 498, 500, 502, 504, 506, 508, 510, 512
*Nset, nset=Corner
 289,
*Nset, nset=RP
 1090,
*Elset, elset=_Constraint_S1, internal, generate
  32,  512,   32
*Surface, type=ELEMENT, name=Constraint
_Constraint_S1, S1
** Section: Section-1
*Solid Section, elset=_PickedSet2, material=Material-1
1.,
*End Part
**  
*Part, name=cpe6h_32
*Node
      1,           0.,           0.
      2,          1.5,        1.375
      3,           3.,         2.75
      4,          4.5,        4.125
      5,           6.,          5.5
      6,          7.5,        6.875
      7,           9.,         8.25
      8,         10.5,        9.625
      9,          12.,          11.
     10,         13.5,       12.375
     11,          15.,        13.75
     12,         16.5,       15.125
     13,          18.,         16.5
     14,         19.5,       17.875
     15,          21.,        19.25
     16,         22.5,       20.625
     17,          24.,          22.
     18,         25.5,       23.375
     19,          27.,        24.75
     20,         28.5,       26.125
** ... 4205 like lines cut
*Element, type=CPE6H
   1,    1,    2,   34, 1090, 1091, 1092
   2,    2,   35,   34, 1093, 1094, 1091
   3,    2,    3,   35, 1095, 1096, 1093
   4,    3,   36,   35, 1097, 1098, 1096
   5,    3,    4,   36, 1099, 1100, 1097
   6,    4,   37,   36, 1101, 1102, 1100
   7,    4,    5,   37, 1103, 1104, 1101
   8,    5,   38,   37, 1105, 1106, 1104
   9,    5,    6,   38, 1107, 1108, 1105
  10,    6,   39,   38, 1109, 1110, 1108
  11,    6,    7,   39, 1111, 1112, 1109
  12,    7,   40,   39, 1113, 1114, 1112
  13,    7,    8,   40, 1115, 1116, 1113
  14,    8,   41,   40, 1117, 1118, 1116
  15,    8,    9,   41, 1119, 1120, 1117
  16,    9,   42,   41, 1121, 1122, 1120
  17,    9,   10,   42, 1123, 1124, 1121
  18,   10,   43,   42, 1125, 1126, 1124
  19,   10,   11,   43, 1127, 1128, 1125
  20,   11,   44,   43, 1129, 1130, 1128
** ... 2028 like lines cut
*Node
   4226,          48.,          52.,           0.
*Nset, nset=cpe6h_32-RefPt_, internal
4226, 
*Nset, nset=_PickedSet2, internal, generate
    1,  4225,     1
*Elset, elset=_PickedSet2, internal, generate
    1,  2048,     1
*Nset, nset=Fix
    1,   34,   67,  100,  133,  166,  199,  232,  265,  298,  331,  364,  397,  430,  463,  496
  529,  562,  595,  628,  661,  694,  727,  760,  793,  826,  859,  892,  925,  958,  991, 1024
 1057, 1092, 1220, 1317, 1414, 1511, 1608, 1705, 1802, 1899, 1996, 2093, 2190, 2287, 2384, 2481
 2578, 2675, 2772, 2869, 2966, 3063, 3160, 3257, 3354, 3451, 3548, 3645, 3742, 3839, 3936, 4033
 4130,
*Elset, elset=Fix, generate
    1,  1985,    64
*Nset, nset=Set-1
    1,    2,    3,    4,    5,    6,    7,    8,    9,   10,   11,   12,   13,   14,   15,   16
   17,   18,   19,   20,   21,   22,   23,   24,   25,   26,   27,   28,   29,   30,   31,   32
   33,   34,   66,   67,   99,  100,  132,  133,  165,  166,  198,  199,  231,  232,  264,  265
  297,  298,  330,  331,  363,  364,  396,  397,  429,  430,  462,  463,  495,  496,  528,  529
  561,  562,  594,  595,  627,  628,  660,  661,  693,  694,  726,  727,  759,  760,  792,  793
  825,  826,  858,  859,  891,  892,  924,  925,  957,  958,  990,  991, 1023, 1024, 1056, 1057
 1058, 1059, 1060, 1061, 1062, 1063, 1064, 1065, 1066, 1067, 1068, 1069, 1070, 1071, 1072, 1073
 1074, 1075, 1076, 1077, 1078, 1079, 1080, 1081, 1082, 1083, 1084, 1085, 1086, 1087, 1088, 1089
 1090, 1092, 1095, 1099, 1103, 1107, 1111, 1115, 1119, 1123, 1127, 1131, 1135, 1139, 1143, 1147
 1151, 1155, 1159, 1163, 1167, 1171, 1175, 1179, 1183, 1187, 1191, 1195, 1199, 1203, 1207, 1211
 1215, 1217, 1220, 1314, 1317, 1411, 1414, 1508, 1511, 1605, 1608, 1702, 1705, 1799, 1802, 1896
 1899, 1993, 1996, 2090, 2093, 2187, 2190, 2284, 2287, 2381, 2384, 2478, 2481, 2575, 2578, 2672
 2675, 2769, 2772, 2866, 2869, 2963, 2966, 3060, 3063, 3157, 3160, 3254, 3257, 3351, 3354, 3448
 3451, 3545, 3548, 3642, 3645, 3739, 3742, 3836, 3839, 3933, 3936, 4030, 4033, 4127, 4130, 4132
 4135, 4138, 4141, 4144, 4147, 4150, 4153, 4156, 4159, 4162, 4165, 4168, 4171, 4174, 4177, 4180
 4183, 4186, 4189, 4192, 4195, 4198, 4201, 4204, 4207, 4210, 4213, 4216, 4219, 4222, 4224, 4225
*Elset, elset=Set-1
    1,    3,    5,    7,    9,   11,   13,   15,   17,   19,   21,   23,   25,   27,   29,   31
   33,   35,   37,   39,   41,   43,   45,   47,   49,   51,   53,   55,   57,   59,   61,   63
   64,   65,  128,  129,  192,  193,  256,  257,  320,  321,  384,  385,  448,  449,  512,  513
  576,  577,  640,  641,  704,  705,  768,  769,  832,  833,  896,  897,  960,  961, 1024, 1025
 1088, 1089, 1152, 1153, 1216, 1217, 1280, 1281, 1344, 1345, 1408, 1409, 1472, 1473, 1536, 1537
 1600, 1601, 1664, 1665, 1728, 1729, 1792, 1793, 1856, 1857, 1920, 1921, 1984, 1985, 1986, 1988
 1990, 1992, 1994, 1996, 1998, 2000, 2002, 2004, 2006, 2008, 2010, 2012, 2014, 2016, 2018, 2020
 2022, 2024, 2026, 2028, 2030, 2032, 2034, 2036, 2038, 2040, 2042, 2044, 2046, 2048
*Nset, nset=Corner
 1089,
*Nset, nset=RP
 4226,
*Elset, elset=_Constraint_S1, internal, generate
   64,  2048,    64
*Surface, type=ELEMENT, name=Constraint
_Constraint_S1, S1
** Section: Section-1
*Solid Section, elset=_PickedSet2, material=Material-1
1.,
*End Part
**  
*Part, name=cpe6mh_04
*Node
      1,           0.,           0.
      2,          12.,          11.
      3,          24.,          22.
      4,          36.,          33.
      5,          48.,          44.
      6,           0.,          11.
      7,          12.,        20.25
      8,          24.,         29.5
      9,          36.,        38.75
     10,          48.,          48.
     11,           0.,          22.
     12,          12.,         29.5
     13,          24.,          37.
     14,          36.,         44.5
     15,          48.,          52.
     16,           0.,          33.
     17,          12.,        38.75
     18,          24.,         44.5
     19,          36.,        50.25
     20,          48.,          56.
** ... 61 like lines cut
*Element, type=CPE6MH
 1,  1,  2,  6, 26, 27, 28
 2,  2,  7,  6, 29, 30, 27
 3,  2,  3,  7, 31, 32, 29
 4,  3,  8,  7, 33, 34, 32
 5,  3,  4,  8, 35, 36, 33
 6,  4,  9,  8, 37, 38, 36
 7,  4,  5,  9, 39, 40, 37
 8,  5, 10,  9, 41, 42, 40
 9,  6,  7, 11, 30, 43, 44
10,  7, 12, 11, 45, 46, 43
11,  7,  8, 12, 34, 47, 45
12,  8, 13, 12, 48, 49, 47
13,  8,  9, 13, 38, 50, 48
14,  9, 14, 13, 51, 52, 50
15,  9, 10, 14, 42, 53, 51
16, 10, 15, 14, 54, 55, 53
17, 11, 12, 16, 46, 56, 57
18, 12, 17, 16, 58, 59, 56
19, 12, 13, 17, 49, 60, 58
20, 13, 18, 17, 61, 62, 60
** ... 12 like lines cut
*Node
     82,          48.,          52.,           0.
*Nset, nset=cpe6mh_04-RefPt_, internal
82, 
*Nset, nset=_PickedSet2, internal, generate
  1,  81,   1
*Elset, elset=_PickedSet2, internal, generate
  1,  32,   1
*Nset, nset=Fix
  1,  6, 11, 16, 21, 28, 44, 57, 70
*Elset, elset=Fix, generate
  1,  25,   8
*Nset, nset=Set-1
  1,  2,  3,  4,  5,  6, 10, 11, 15, 16, 20, 21, 22, 23, 24, 25
 26, 28, 31, 35, 39, 41, 44, 54, 57, 67, 70, 72, 75, 78, 80, 81
*Elset, elset=Set-1
  1,  3,  5,  7,  8,  9, 16, 17, 24, 25, 26, 28, 30, 32
*Nset, nset=Corner
 25,
*Nset, nset=RP
 82,
*Elset, elset=_Constraint_S1, internal, generate
  8,  32,   8
*Surface, type=ELEMENT, name=Constraint
_Constraint_S1, S1
** Section: Section-1
*Solid Section, elset=_PickedSet2, material=Material-1
1.,
*End Part
**  
*Part, name=cpe6mh_08
*Node
      1,           0.,           0.
      2,           6.,          5.5
      3,          12.,          11.
      4,          18.,         16.5
      5,          24.,          22.
      6,          30.,         27.5
      7,          36.,          33.
      8,          42.,         38.5
      9,          48.,          44.
     10,           0.,          5.5
     11,           6.,      10.5625
     12,          12.,       15.625
     13,          18.,      20.6875
     14,          24.,        25.75
     15,          30.,      30.8125
     16,          36.,       35.875
     17,          42.,      40.9375
     18,          48.,          46.
     19,           0.,          11.
     20,           6.,       15.625
** ... 269 like lines cut
*Element, type=CPE6MH
  1,   1,   2,  10,  82,  83,  84
  2,   2,  11,  10,  85,  86,  83
  3,   2,   3,  11,  87,  88,  85
  4,   3,  12,  11,  89,  90,  88
  5,   3,   4,  12,  91,  92,  89
  6,   4,  13,  12,  93,  94,  92
  7,   4,   5,  13,  95,  96,  93
  8,   5,  14,  13,  97,  98,  96
  9,   5,   6,  14,  99, 100,  97
 10,   6,  15,  14, 101, 102, 100
 11,   6,   7,  15, 103, 104, 101
 12,   7,  16,  15, 105, 106, 104
 13,   7,   8,  16, 107, 108, 105
 14,   8,  17,  16, 109, 110, 108
 15,   8,   9,  17, 111, 112, 109
 16,   9,  18,  17, 113, 114, 112
 17,  10,  11,  19,  86, 115, 116
 18,  11,  20,  19, 117, 118, 115
 19,  11,  12,  20,  90, 119, 117
 20,  12,  21,  20, 120, 121, 119
** ... 108 like lines cut
*Node
    290,          48.,          52.,           0.
*Nset, nset=cpe6mh_08-RefPt_, internal
290, 
*Nset, nset=_PickedSet2, internal, generate
   1,  289,    1
*Elset, elset=_PickedSet2, internal, generate
   1,  128,    1
*Nset, nset=Fix
   1,  10,  19,  28,  37,  46,  55,  64,  73,  84, 116, 141, 166, 191, 216, 241
 266,
*Elset, elset=Fix, generate
   1,  113,   16
*Nset, nset=Set-1
   1,   2,   3,   4,   5,   6,   7,   8,   9,  10,  18,  19,  27,  28,  36,  37
  45,  46,  54,  55,  63,  64,  72,  73,  74,  75,  76,  77,  78,  79,  80,  81
  82,  84,  87,  91,  95,  99, 103, 107, 111, 113, 116, 138, 141, 163, 166, 188
 191, 213, 216, 238, 241, 263, 266, 268, 271, 274, 277, 280, 283, 286, 288, 289
*Elset, elset=Set-1
   1,   3,   5,   7,   9,  11,  13,  15,  16,  17,  32,  33,  48,  49,  64,  65
  80,  81,  96,  97, 112, 113, 114, 116, 118, 120, 122, 124, 126, 128
*Nset, nset=Corner
 81,
*Nset, nset=RP
 290,
*Elset, elset=_Constraint_S1, internal, generate
  16,  128,   16
*Surface, type=ELEMENT, name=Constraint
_Constraint_S1, S1
** Section: Section-1
*Solid Section, elset=_PickedSet2, material=Material-1
1.,
*End Part
**  
*Part, name=cpe6mh_16
*Node
      1,           0.,           0.
      2,           3.,         2.75
      3,           6.,          5.5
      4,           9.,         8.25
      5,          12.,          11.
      6,          15.,        13.75
      7,          18.,         16.5
      8,          21.,        19.25
      9,          24.,          22.
     10,          27.,        24.75
     11,          30.,         27.5
     12,          33.,        30.25
     13,          36.,          33.
     14,          39.,        35.75
     15,          42.,         38.5
     16,          45.,        41.25
     17,          48.,          44.
     18,           0.,         2.75
     19,           3.,     5.390625
     20,           6.,      8.03125
** ... 1069 like lines cut
*Element, type=CPE6MH
  1,    1,    2,   18,  290,  291,  292
  2,    2,   19,   18,  293,  294,  291
  3,    2,    3,   19,  295,  296,  293
  4,    3,   20,   19,  297,  298,  296
  5,    3,    4,   20,  299,  300,  297
  6,    4,   21,   20,  301,  302,  300
  7,    4,    5,   21,  303,  304,  301
  8,    5,   22,   21,  305,  306,  304
  9,    5,    6,   22,  307,  308,  305
 10,    6,   23,   22,  309,  310,  308
 11,    6,    7,   23,  311,  312,  309
 12,    7,   24,   23,  313,  314,  312
 13,    7,    8,   24,  315,  316,  313
 14,    8,   25,   24,  317,  318,  316
 15,    8,    9,   25,  319,  320,  317
 16,    9,   26,   25,  321,  322,  320
 17,    9,   10,   26,  323,  324,  321
 18,   10,   27,   26,  325,  326,  324
 19,   10,   11,   27,  327,  328,  325
 20,   11,   28,   27,  329,  330,  328
** ... 492 like lines cut
*Node
   1090,          48.,          52.,           0.
*Nset, nset=cpe6mh_16-RefPt_, internal
1090, 
*Nset, nset=_PickedSet2, internal, generate
    1,  1089,     1
*Elset, elset=_PickedSet2, internal, generate
   1,  512,    1
*Nset, nset=Fix
    1,   18,   35,   52,   69,   86,  103,  120,  137,  154,  171,  188,  205,  222,  239,  256
  273,  292,  356,  405,  454,  503,  552,  601,  650,  699,  748,  797,  846,  895,  944,  993
 1042,
*Elset, elset=Fix, generate
   1,  481,   32
*Nset, nset=Set-1
    1,    2,    3,    4,    5,    6,    7,    8,    9,   10,   11,   12,   13,   14,   15,   16
   17,   18,   34,   35,   51,   52,   68,   69,   85,   86,  102,  103,  119,  120,  136,  137
  153,  154,  170,  171,  187,  188,  204,  205,  221,  222,  238,  239,  255,  256,  272,  273
  274,  275,  276,  277,  278,  279,  280,  281,  282,  283,  284,  285,  286,  287,  288,  289
  290,  292,  295,  299,  303,  307,  311,  315,  319,  323,  327,  331,  335,  339,  343,  347
  351,  353,  356,  402,  405,  451,  454,  500,  503,  549,  552,  598,  601,  647,  650,  696
  699,  745,  748,  794,  797,  843,  846,  892,  895,  941,  944,  990,  993, 1039, 1042, 1044
 1047, 1050, 1053, 1056, 1059, 1062, 1065, 1068, 1071, 1074, 1077, 1080, 1083, 1086, 1088, 1089
*Elset, elset=Set-1
   1,   3,   5,   7,   9,  11,  13,  15,  17,  19,  21,  23,  25,  27,  29,  31
  32,  33,  64,  65,  96,  97, 128, 129, 160, 161, 192, 193, 224, 225, 256, 257
 288, 289, 320, 321, 352, 353, 384, 385, 416, 417, 448, 449, 480, 481, 482, 484
 486, 488, 490, 492, 494, 496, 498, 500, 502, 504, 506, 508, 510, 512
*Nset, nset=Corner
 289,
*Nset, nset=RP
 1090,
*Elset, elset=_Constraint_S1, internal, generate
  32,  512,   32
*Surface, type=ELEMENT, name=Constraint
_Constraint_S1, S1
** Section: Section-1
*Solid Section, elset=_PickedSet2, material=Material-1
1.,
*End Part
**  
*Part, name=cpe6mh_32
*Node
      1,           0.,           0.
      2,          1.5,        1.375
      3,           3.,         2.75
      4,          4.5,        4.125
      5,           6.,          5.5
      6,          7.5,        6.875
      7,           9.,         8.25
      8,         10.5,        9.625
      9,          12.,          11.
     10,         13.5,       12.375
     11,          15.,        13.75
     12,         16.5,       15.125
     13,          18.,         16.5
     14,         19.5,       17.875
     15,          21.,        19.25
     16,         22.5,       20.625
     17,          24.,          22.
     18,         25.5,       23.375
     19,          27.,        24.75
     20,         28.5,       26.125
** ... 4205 like lines cut
*Element, type=CPE6MH
   1,    1,    2,   34, 1090, 1091, 1092
   2,    2,   35,   34, 1093, 1094, 1091
   3,    2,    3,   35, 1095, 1096, 1093
   4,    3,   36,   35, 1097, 1098, 1096
   5,    3,    4,   36, 1099, 1100, 1097
   6,    4,   37,   36, 1101, 1102, 1100
   7,    4,    5,   37, 1103, 1104, 1101
   8,    5,   38,   37, 1105, 1106, 1104
   9,    5,    6,   38, 1107, 1108, 1105
  10,    6,   39,   38, 1109, 1110, 1108
  11,    6,    7,   39, 1111, 1112, 1109
  12,    7,   40,   39, 1113, 1114, 1112
  13,    7,    8,   40, 1115, 1116, 1113
  14,    8,   41,   40, 1117, 1118, 1116
  15,    8,    9,   41, 1119, 1120, 1117
  16,    9,   42,   41, 1121, 1122, 1120
  17,    9,   10,   42, 1123, 1124, 1121
  18,   10,   43,   42, 1125, 1126, 1124
  19,   10,   11,   43, 1127, 1128, 1125
  20,   11,   44,   43, 1129, 1130, 1128
** ... 2028 like lines cut
*Node
   4226,          48.,          52.,           0.
*Nset, nset=cpe6mh_32-RefPt_, internal
4226, 
*Nset, nset=_PickedSet2, internal, generate
    1,  4225,     1
*Elset, elset=_PickedSet2, internal, generate
    1,  2048,     1
*Nset, nset=Fix
    1,   34,   67,  100,  133,  166,  199,  232,  265,  298,  331,  364,  397,  430,  463,  496
  529,  562,  595,  628,  661,  694,  727,  760,  793,  826,  859,  892,  925,  958,  991, 1024
 1057, 1092, 1220, 1317, 1414, 1511, 1608, 1705, 1802, 1899, 1996, 2093, 2190, 2287, 2384, 2481
 2578, 2675, 2772, 2869, 2966, 3063, 3160, 3257, 3354, 3451, 3548, 3645, 3742, 3839, 3936, 4033
 4130,
*Elset, elset=Fix, generate
    1,  1985,    64
*Nset, nset=Set-1
    1,    2,    3,    4,    5,    6,    7,    8,    9,   10,   11,   12,   13,   14,   15,   16
   17,   18,   19,   20,   21,   22,   23,   24,   25,   26,   27,   28,   29,   30,   31,   32
   33,   34,   66,   67,   99,  100,  132,  133,  165,  166,  198,  199,  231,  232,  264,  265
  297,  298,  330,  331,  363,  364,  396,  397,  429,  430,  462,  463,  495,  496,  528,  529
  561,  562,  594,  595,  627,  628,  660,  661,  693,  694,  726,  727,  759,  760,  792,  793
  825,  826,  858,  859,  891,  892,  924,  925,  957,  958,  990,  991, 1023, 1024, 1056, 1057
 1058, 1059, 1060, 1061, 1062, 1063, 1064, 1065, 1066, 1067, 1068, 1069, 1070, 1071, 1072, 1073
 1074, 1075, 1076, 1077, 1078, 1079, 1080, 1081, 1082, 1083, 1084, 1085, 1086, 1087, 1088, 1089
 1090, 1092, 1095, 1099, 1103, 1107, 1111, 1115, 1119, 1123, 1127, 1131, 1135, 1139, 1143, 1147
 1151, 1155, 1159, 1163, 1167, 1171, 1175, 1179, 1183, 1187, 1191, 1195, 1199, 1203, 1207, 1211
 1215, 1217, 1220, 1314, 1317, 1411, 1414, 1508, 1511, 1605, 1608, 1702, 1705, 1799, 1802, 1896
 1899, 1993, 1996, 2090, 2093, 2187, 2190, 2284, 2287, 2381, 2384, 2478, 2481, 2575, 2578, 2672
 2675, 2769, 2772, 2866, 2869, 2963, 2966, 3060, 3063, 3157, 3160, 3254, 3257, 3351, 3354, 3448
 3451, 3545, 3548, 3642, 3645, 3739, 3742, 3836, 3839, 3933, 3936, 4030, 4033, 4127, 4130, 4132
 4135, 4138, 4141, 4144, 4147, 4150, 4153, 4156, 4159, 4162, 4165, 4168, 4171, 4174, 4177, 4180
 4183, 4186, 4189, 4192, 4195, 4198, 4201, 4204, 4207, 4210, 4213, 4216, 4219, 4222, 4224, 4225
*Elset, elset=Set-1
    1,    3,    5,    7,    9,   11,   13,   15,   17,   19,   21,   23,   25,   27,   29,   31
   33,   35,   37,   39,   41,   43,   45,   47,   49,   51,   53,   55,   57,   59,   61,   63
   64,   65,  128,  129,  192,  193,  256,  257,  320,  321,  384,  385,  448,  449,  512,  513
  576,  577,  640,  641,  704,  705,  768,  769,  832,  833,  896,  897,  960,  961, 1024, 1025
 1088, 1089, 1152, 1153, 1216, 1217, 1280, 1281, 1344, 1345, 1408, 1409, 1472, 1473, 1536, 1537
 1600, 1601, 1664, 1665, 1728, 1729, 1792, 1793, 1856, 1857, 1920, 1921, 1984, 1985, 1986, 1988
 1990, 1992, 1994, 1996, 1998, 2000, 2002, 2004, 2006, 2008, 2010, 2012, 2014, 2016, 2018, 2020
 2022, 2024, 2026, 2028, 2030, 2032, 2034, 2036, 2038, 2040, 2042, 2044, 2046, 2048
*Nset, nset=Corner
 1089,
*Nset, nset=RP
 4226,
*Elset, elset=_Constraint_S1, internal, generate
   64,  2048,    64
*Surface, type=ELEMENT, name=Constraint
_Constraint_S1, S1
** Section: Section-1
*Solid Section, elset=_PickedSet2, material=Material-1
1.,
*End Part
**  
**
** ASSEMBLY
**
*Assembly, name=Assembly
**  
*Instance, name=cpe3h_04-1, part=cpe3h_04
*End Instance
**  
*Instance, name=cpe3h_08-1, part=cpe3h_08
        52.8,           0.,           0.
*End Instance
**  
*Instance, name=cpe3h_16-1, part=cpe3h_16
       105.6,           0.,           0.
*End Instance
**  
*Instance, name=cpe3h_32-1, part=cpe3h_32
       158.4,           0.,           0.
*End Instance
**  
*Instance, name=cpe6mh_04-1, part=cpe6mh_04
       211.2,           0.,           0.
*End Instance
**  
*Instance, name=cpe6mh_08-1, part=cpe6mh_08
        264.,           0.,           0.
*End Instance
**  
*Instance, name=cpe6mh_16-1, part=cpe6mh_16
       316.8,           0.,           0.
*End Instance
**  
*Instance, name=cpe6mh_32-1, part=cpe6mh_32
       369.6,           0.,           0.
*End Instance
**  
*Instance, name=cpe6h_04-1, part=cpe6h_04
       422.4,           0.,           0.
*End Instance
**  
*Instance, name=cpe6h_08-1, part=cpe6h_08
       475.2,           0.,           0.
*End Instance
**  
*Instance, name=cpe6h_16-1, part=cpe6h_16
        528.,           0.,           0.
*End Instance
**  
*Instance, name=cpe6h_32-1, part=cpe6h_32
       580.8,           0.,           0.
*End Instance
**  
*Instance, name=cpe4h_04-1, part=cpe4h_04
       633.6,           0.,           0.
*End Instance
**  
*Instance, name=cpe4h_08-1, part=cpe4h_08
       686.4,           0.,           0.
*End Instance
**  
*Instance, name=cpe4h_16-1, part=cpe4h_16
       739.2,           0.,           0.
*End Instance
**  
*Instance, name=cpe4h_32-1, part=cpe4h_32
        792.,           0.,           0.
*End Instance
**  
*Instance, name=cpe4ih_04-1, part=cpe4ih_04
       844.8,           0.,           0.
*End Instance
**  
*Instance, name=cpe4ih_08-1, part=cpe4ih_08
       897.6,           0.,           0.
*End Instance
**  
*Instance, name=cpe4ih_16-1, part=cpe4ih_16
       950.4,           0.,           0.
*End Instance
**  
*Instance, name=cpe4ih_32-1, part=cpe4ih_32
      1003.2,           0.,           0.
*End Instance
**  
*Instance, name=cpe4rh_04-1, part=cpe4rh_04
       1056.,           0.,           0.
*End Instance
**  
*Instance, name=cpe4rh_08-1, part=cpe4rh_08
      1108.8,           0.,           0.
*End Instance
**  
*Instance, name=cpe4rh_16-1, part=cpe4rh_16
      1161.6,           0.,           0.
*End Instance
**  
*Instance, name=cpe4rh_32-1, part=cpe4rh_32
      1214.4,           0.,           0.
*End Instance
**  
*Nset, nset=Corner, instance=cpe3h_04-1
 25,
*Nset, nset=Corner, instance=cpe3h_08-1
 81,
*Nset, nset=Corner, instance=cpe3h_32-1
 1089,
*Nset, nset=Corner, instance=cpe6mh_32-1
 1089,
*Nset, nset=Corner, instance=cpe4h_32-1
 1089,
*Nset, nset=Corner, instance=cpe4rh_32-1
 1089,
*Nset, nset=Corner, instance=cpe6h_32-1
 1089,
*Nset, nset=Corner, instance=cpe4ih_32-1
 1089,
*Nset, nset=Corner, instance=cpe6mh_08-1
 81,
*Nset, nset=Corner, instance=cpe6h_08-1
 81,
*Nset, nset=Corner, instance=cpe4ih_08-1
 81,
*Nset, nset=Corner, instance=cpe4h_08-1
 81,
*Nset, nset=Corner, instance=cpe4rh_08-1
 81,
*Nset, nset=Corner, instance=cpe3h_16-1
 289,
*Nset, nset=Corner, instance=cpe6mh_04-1
 25,
*Nset, nset=Corner, instance=cpe6h_04-1
 25,
*Nset, nset=Corner, instance=cpe4ih_04-1
 25,
*Nset, nset=Corner, instance=cpe4h_04-1
 25,
*Nset, nset=Corner, instance=cpe4rh_04-1
 25,
*Nset, nset=Corner, instance=cpe6mh_16-1
 289,
*Nset, nset=Corner, instance=cpe6h_16-1
 289,
*Nset, nset=Corner, instance=cpe4ih_16-1
 289,
*Nset, nset=Corner, instance=cpe4h_16-1
 289,
*Nset, nset=Corner, instance=cpe4rh_16-1
 289,
*Nset, nset=Fix, instance=cpe3h_04-1, generate
  1,  21,   5
*Nset, nset=Fix, instance=cpe3h_08-1, generate
  1,  73,   9
*Nset, nset=Fix, instance=cpe3h_32-1, generate
    1,  1057,    33
*Nset, nset=Fix, instance=cpe6mh_32-1
    1,   34,   67,  100,  133,  166,  199,  232,  265,  298,  331,  364,  397,  430,  463,  496
  529,  562,  595,  628,  661,  694,  727,  760,  793,  826,  859,  892,  925,  958,  991, 1024
 1057, 1092, 1220, 1317, 1414, 1511, 1608, 1705, 1802, 1899, 1996, 2093, 2190, 2287, 2384, 2481
 2578, 2675, 2772, 2869, 2966, 3063, 3160, 3257, 3354, 3451, 3548, 3645, 3742, 3839, 3936, 4033
 4130,
*Nset, nset=Fix, instance=cpe4h_32-1, generate
    1,  1057,    33
*Nset, nset=Fix, instance=cpe4rh_32-1, generate
    1,  1057,    33
*Nset, nset=Fix, instance=cpe6h_32-1
    1,   34,   67,  100,  133,  166,  199,  232,  265,  298,  331,  364,  397,  430,  463,  496
  529,  562,  595,  628,  661,  694,  727,  760,  793,  826,  859,  892,  925,  958,  991, 1024
 1057, 1092, 1220, 1317, 1414, 1511, 1608, 1705, 1802, 1899, 1996, 2093, 2190, 2287, 2384, 2481
 2578, 2675, 2772, 2869, 2966, 3063, 3160, 3257, 3354, 3451, 3548, 3645, 3742, 3839, 3936, 4033
 4130,
*Nset, nset=Fix, instance=cpe4ih_32-1, generate
    1,  1057,    33
*Nset, nset=Fix, instance=cpe6mh_08-1
   1,  10,  19,  28,  37,  46,  55,  64,  73,  84, 116, 141, 166, 191, 216, 241
 266,
*Nset, nset=Fix, instance=cpe6h_08-1
   1,  10,  19,  28,  37,  46,  55,  64,  73,  84, 116, 141, 166, 191, 216, 241
 266,
*Nset, nset=Fix, instance=cpe4ih_08-1, generate
  1,  73,   9
*Nset, nset=Fix, instance=cpe4h_08-1, generate
  1,  73,   9
*Nset, nset=Fix, instance=cpe4rh_08-1, generate
  1,  73,   9
*Nset, nset=Fix, instance=cpe3h_16-1, generate
   1,  273,   17
*Nset, nset=Fix, instance=cpe6mh_04-1
  1,  6, 11, 16, 21, 28, 44, 57, 70
*Nset, nset=Fix, instance=cpe6h_04-1
  1,  6, 11, 16, 21, 28, 44, 57, 70
*Nset, nset=Fix, instance=cpe4ih_04-1, generate
  1,  21,   5
*Nset, nset=Fix, instance=cpe4h_04-1, generate
  1,  21,   5
*Nset, nset=Fix, instance=cpe4rh_04-1, generate
  1,  21,   5
*Nset, nset=Fix, instance=cpe6mh_16-1
    1,   18,   35,   52,   69,   86,  103,  120,  137,  154,  171,  188,  205,  222,  239,  256
  273,  292,  356,  405,  454,  503,  552,  601,  650,  699,  748,  797,  846,  895,  944,  993
 1042,
*Nset, nset=Fix, instance=cpe6h_16-1
    1,   18,   35,   52,   69,   86,  103,  120,  137,  154,  171,  188,  205,  222,  239,  256
  273,  292,  356,  405,  454,  503,  552,  601,  650,  699,  748,  797,  846,  895,  944,  993
 1042,
*Nset, nset=Fix, instance=cpe4ih_16-1, generate
   1,  273,   17
*Nset, nset=Fix, instance=cpe4h_16-1, generate
   1,  273,   17
*Nset, nset=Fix, instance=cpe4rh_16-1, generate
   1,  273,   17
*Elset, elset=Fix, instance=cpe3h_04-1, generate
  1,  25,   8
*Elset, elset=Fix, instance=cpe3h_08-1, generate
   1,  113,   16
*Elset, elset=Fix, instance=cpe3h_32-1, generate
    1,  1985,    64
*Elset, elset=Fix, instance=cpe6mh_32-1, generate
    1,  1985,    64
*Elset, elset=Fix, instance=cpe4h_32-1, generate
   1,  993,   32
*Elset, elset=Fix, instance=cpe4rh_32-1, generate
   1,  993,   32
*Elset, elset=Fix, instance=cpe6h_32-1, generate
    1,  1985,    64
*Elset, elset=Fix, instance=cpe4ih_32-1, generate
   1,  993,   32
*Elset, elset=Fix, instance=cpe6mh_08-1, generate
   1,  113,   16
*Elset, elset=Fix, instance=cpe6h_08-1, generate
   1,  113,   16
*Elset, elset=Fix, instance=cpe4ih_08-1, generate
  1,  57,   8
*Elset, elset=Fix, instance=cpe4h_08-1, generate
  1,  57,   8
*Elset, elset=Fix, instance=cpe4rh_08-1, generate
  1,  57,   8
*Elset, elset=Fix, instance=cpe3h_16-1, generate
   1,  481,   32
*Elset, elset=Fix, instance=cpe6mh_04-1, generate
  1,  25,   8
*Elset, elset=Fix, instance=cpe6h_04-1, generate
  1,  25,   8
*Elset, elset=Fix, instance=cpe4ih_04-1, generate
  1,  13,   4
*Elset, elset=Fix, instance=cpe4h_04-1, generate
  1,  13,   4
*Elset, elset=Fix, instance=cpe4rh_04-1, generate
  1,  13,   4
*Elset, elset=Fix, instance=cpe6mh_16-1, generate
   1,  481,   32
*Elset, elset=Fix, instance=cpe6h_16-1, generate
   1,  481,   32
*Elset, elset=Fix, instance=cpe4ih_16-1, generate
   1,  241,   16
*Elset, elset=Fix, instance=cpe4h_16-1, generate
   1,  241,   16
*Elset, elset=Fix, instance=cpe4rh_16-1, generate
   1,  241,   16
*Nset, nset=RP, instance=cpe3h_04-1
 26,
*Nset, nset=RP, instance=cpe3h_08-1
 82,
*Nset, nset=RP, instance=cpe3h_32-1
 1090,
*Nset, nset=RP, instance=cpe6mh_32-1
 4226,
*Nset, nset=RP, instance=cpe4h_32-1
 1090,
*Nset, nset=RP, instance=cpe4rh_32-1
 1090,
*Nset, nset=RP, instance=cpe6h_32-1
 4226,
*Nset, nset=RP, instance=cpe4ih_32-1
 1090,
*Nset, nset=RP, instance=cpe6mh_08-1
 290,
*Nset, nset=RP, instance=cpe6h_08-1
 290,
*Nset, nset=RP, instance=cpe4ih_08-1
 82,
*Nset, nset=RP, instance=cpe4h_08-1
 82,
*Nset, nset=RP, instance=cpe4rh_08-1
 82,
*Nset, nset=RP, instance=cpe3h_16-1
 290,
*Nset, nset=RP, instance=cpe6mh_04-1
 82,
*Nset, nset=RP, instance=cpe6h_04-1
 82,
*Nset, nset=RP, instance=cpe4ih_04-1
 26,
*Nset, nset=RP, instance=cpe4h_04-1
 26,
*Nset, nset=RP, instance=cpe4rh_04-1
 26,
*Nset, nset=RP, instance=cpe6mh_16-1
 1090,
*Nset, nset=RP, instance=cpe6h_16-1
 1090,
*Nset, nset=RP, instance=cpe4ih_16-1
 290,
*Nset, nset=RP, instance=cpe4h_16-1
 290,
*Nset, nset=RP, instance=cpe4rh_16-1
 290,
** Constraint: cpe3h_04
*Coupling, constraint name=cpe3h_04, ref node=cpe3h_04-1.RP, surface=cpe3h_04-1.Constraint
*Distributing, weighting method=UNIFORM
** Constraint: cpe3h_08
*Coupling, constraint name=cpe3h_08, ref node=cpe3h_08-1.RP, surface=cpe3h_08-1.Constraint
*Distributing, weighting method=UNIFORM
** Constraint: cpe3h_16
*Coupling, constraint name=cpe3h_16, ref node=cpe3h_16-1.RP, surface=cpe3h_16-1.Constraint
*Distributing, weighting method=UNIFORM
** Constraint: cpe3h_32
*Coupling, constraint name=cpe3h_32, ref node=cpe3h_32-1.RP, surface=cpe3h_32-1.Constraint
*Distributing, weighting method=UNIFORM
** Constraint: cpe4h_04
*Coupling, constraint name=cpe4h_04, ref node=cpe4h_04-1.RP, surface=cpe4h_04-1.Constraint
*Distributing, weighting method=UNIFORM
** Constraint: cpe4h_08
*Coupling, constraint name=cpe4h_08, ref node=cpe4h_08-1.RP, surface=cpe4h_08-1.Constraint
*Distributing, weighting method=UNIFORM
** Constraint: cpe4h_16
*Coupling, constraint name=cpe4h_16, ref node=cpe4h_16-1.RP, surface=cpe4h_16-1.Constraint
*Distributing, weighting method=UNIFORM
** Constraint: cpe4h_32
*Coupling, constraint name=cpe4h_32, ref node=cpe4h_32-1.RP, surface=cpe4h_32-1.Constraint
*Distributing, weighting method=UNIFORM
** Constraint: cpe4ih_04
*Coupling, constraint name=cpe4ih_04, ref node=cpe4ih_04-1.RP, surface=cpe4ih_04-1.Constraint
*Distributing, weighting method=UNIFORM
** Constraint: cpe4ih_08
*Coupling, constraint name=cpe4ih_08, ref node=cpe4ih_08-1.RP, surface=cpe4ih_08-1.Constraint
*Distributing, weighting method=UNIFORM
** Constraint: cpe4ih_16
*Coupling, constraint name=cpe4ih_16, ref node=cpe4ih_16-1.RP, surface=cpe4ih_16-1.Constraint
*Distributing, weighting method=UNIFORM
** Constraint: cpe4ih_32
*Coupling, constraint name=cpe4ih_32, ref node=cpe4ih_32-1.RP, surface=cpe4ih_32-1.Constraint
*Distributing, weighting method=UNIFORM
** Constraint: cpe4rh_04
*Coupling, constraint name=cpe4rh_04, ref node=cpe4rh_04-1.RP, surface=cpe4rh_04-1.Constraint
*Distributing, weighting method=UNIFORM
** Constraint: cpe4rh_08
*Coupling, constraint name=cpe4rh_08, ref node=cpe4rh_08-1.RP, surface=cpe4rh_08-1.Constraint
*Distributing, weighting method=UNIFORM
** Constraint: cpe4rh_16
*Coupling, constraint name=cpe4rh_16, ref node=cpe4rh_16-1.RP, surface=cpe4rh_16-1.Constraint
*Distributing, weighting method=UNIFORM
** Constraint: cpe4rh_32
*Coupling, constraint name=cpe4rh_32, ref node=cpe4rh_32-1.RP, surface=cpe4rh_32-1.Constraint
*Distributing, weighting method=UNIFORM
** Constraint: cpe6h_04
*Coupling, constraint name=cpe6h_04, ref node=cpe6h_04-1.RP, surface=cpe6h_04-1.Constraint
*Distributing, weighting method=UNIFORM
** Constraint: cpe6h_08
*Coupling, constraint name=cpe6h_08, ref node=cpe6h_08-1.RP, surface=cpe6h_08-1.Constraint
*Distributing, weighting method=UNIFORM
** Constraint: cpe6h_16
*Coupling, constraint name=cpe6h_16, ref node=cpe6h_16-1.RP, surface=cpe6h_16-1.Constraint
*Distributing, weighting method=UNIFORM
** Constraint: cpe6h_32
*Coupling, constraint name=cpe6h_32, ref node=cpe6h_32-1.RP, surface=cpe6h_32-1.Constraint
*Distributing, weighting method=UNIFORM
** Constraint: cpe6mh_04
*Coupling, constraint name=cpe6mh_04, ref node=cpe6mh_04-1.RP, surface=cpe6mh_04-1.Constraint
*Distributing, weighting method=UNIFORM
** Constraint: cpe6mh_08
*Coupling, constraint name=cpe6mh_08, ref node=cpe6mh_08-1.RP, surface=cpe6mh_08-1.Constraint
*Distributing, weighting method=UNIFORM
** Constraint: cpe6mh_16
*Coupling, constraint name=cpe6mh_16, ref node=cpe6mh_16-1.RP, surface=cpe6mh_16-1.Constraint
*Distributing, weighting method=UNIFORM
** Constraint: cpe6mh_32
*Coupling, constraint name=cpe6mh_32, ref node=cpe6mh_32-1.RP, surface=cpe6mh_32-1.Constraint
*Distributing, weighting method=UNIFORM
*End Assembly
** 
** MATERIALS
** 
*Material, name=Material-1
*Hyperelastic, neo hooke
 0.4, 0.00025
** ----------------------------------------------------------------
** 
** STEP: Step-1
** 
*Step, name=Step-1, nlgeom=YES
*Static
1., 1., 1e-05, 1.
** 
** BOUNDARY CONDITIONS
** 
** Name: BC-1 Type: Symmetry/Antisymmetry/Encastre
*Boundary
Fix, ENCASTRE
** 
** LOADS
** 
** Name: Load-1   Type: Concentrated force
*Cload
RP, 2, 1.
** 
** OUTPUT REQUESTS
** 
*Restart, write, frequency=0
** 
** FIELD OUTPUT: F-Output-1
** 
*Output, field, frequency=999
*Node Output
UT, 
*Element Output, directions=YES
S, 
** 
** HISTORY OUTPUT: H-Output-1
** 
*Output, history
*Node Output, nset=Corner
U1, U2
** 
** PRINT TO DAT FILE
** 
*Node Print, nset=Corner, freq=999
U1, U2
*End Step

