pragma openseespy
model  -ndm 3 -ndf 6
nDMaterial ElasticIsotropic 1 29000.0 0.2946428571428572 
section ShearFiber 1 -GJ 0
fiber  -area 0.0024582639885040777 -y -0.14561512300458365 -z -6.3829750736447375 -warp {{-0.9688128476326746 -6.786934454042212 -0.04748607401989281} {0 0.0 0}} -material 1 -section 1
fiber  -area 0.001968071740911675 -y 0.0858973084620515 -z -6.445011251646858 -warp {{0.569171549136397 -6.638781698725675 -0.025275225419165857} {0 0.0 0}} -material 1 -section 1
fiber  -area 0.0026295055799975256 -y 0.2513534165830714 -z 6.449067492681132 -warp {{-1.6787270648421435 6.748091646751421 -0.2109477527758486} {0 0.0 0}} -material 1 -section 1
fiber  -area 0.002796604853338925 -y 0.1014594313673518 -z 6.425207602196014 -warp {{-0.6731775102274836 6.678373188777236 0.022672204284234363} {0 0.0 0}} -material 1 -section 1
fiber  -area 0.0022616072114781324 -y 0.1304274710890395 -z 6.220068233014909 -warp {{-0.8284796255476544 6.237688704920151 0.3756999411078691} {0 0.0 0}} -material 1 -section 1
fiber  -area 0.002487779349693777 -y -0.007698820096156869 -z 6.486116300436176 -warp {{0.05109670331409518 6.608789679215269 -0.006552612113860611} {0 0.0 0}} -material 1 -section 1
fiber  -area 0.002460525168736268 -y 0.006084256112897629 -z 6.3298594819992475 -warp {{-0.039783655901644864 6.519855409461618 -0.000495037638584995} {0 0.0 0}} -material 1 -section 1
fiber  -area 0.0031467887616343357 -y -0.039403531190762286 -z -6.423441977149788 -warp {{-0.26068835998858936 -6.6202957062424455 0.004775549539015417} {0 0.0 0}} -material 1 -section 1
fiber  -area 0.0017380861797066988 -y -0.08557062785976706 -z -0.13913505059366446 -warp {{-0.011877430756379556 -0.15014173930101296 -0.06360844248805463} {0 0.0 0}} -material 1 -section 1
fiber  -area 0.0015654750619104728 -y -0.12265660393775457 -z 0.0831423636570512 -warp {{0.01075214397343253 0.0907694408045629 -0.09014781582188407} {0 0.0 0}} -material 1 -section 1
fiber  -area 0.0023834684375634483 -y 0.2593506267351425 -z -6.453786116989534 -warp {{1.7323827949355435 -6.781037095117583 -0.17351269995304044} {0 0.0 0}} -material 1 -section 1
fiber  -area 0.0019355233000958175 -y 0.13663742324540615 -z -6.290027468036063 -warp {{0.8932077714349494 -6.7068544689065295 0.4189533868696994} {0 0.0 0}} -material 1 -section 1
fiber  -area 0.0014792241013295256 -y -2.0158380814716805 -z 6.653582883495797 -warp {{13.1920506784127 6.5700787685478375 2.0086840564017807} {0 0.0 0}} -material 1 -section 1
fiber  -area 0.0023669367796510807 -y -0.141628709058663 -z 6.406422074968462 -warp {{0.9423478174500314 6.742995280420115 0.028915377784093643} {0 0.0 0}} -material 1 -section 1
fiber  -area 0.0017539659194493545 -y 0.10229771528391646 -z 6.487791422499789 -warp {{-0.677237641239516 6.645742892928202 -0.051970904894165795} {0 0.0 0}} -material 1 -section 1
fiber  -area 0.0025366865046284877 -y -0.28659657212960704 -z -6.551311061739646 -warp {{-1.8928968239741912 -6.620894940640599 0.22225152334325318} {0 0.0 0}} -material 1 -section 1
fiber  -area 0.0019815514143507193 -y -0.08578400989106238 -z 6.351877593794479 -warp {{0.5658468683389268 6.602097062112677 -0.08811794734447882} {0 0.0 0}} -material 1 -section 1
fiber  -area 0.0014530087929486317 -y 0.015114274840427261 -z 6.620543455969738 -warp {{-0.09834583823942118 6.508638256145361 -0.005888751647621899} {0 0.0 0}} -material 1 -section 1
fiber  -area 0.0015887492312902244 -y 0.028849544882921505 -z 6.350951673163934 -warp {{-0.1894028377706525 6.616021537204622 0.04110567978829858} {0 0.0 0}} -material 1 -section 1
fiber  -area 0.0017167749137016785 -y -0.0214970341591736 -z 6.343442172962598 -warp {{0.14097283301949673 6.594047676511831 -0.01531905258489494} {0 0.0 0}} -material 1 -section 1
# ... 6343 like lines cut
geomTransf Linear 1 0 0 1 
node 0 0.0 0 0 
node 1 55.2 0 0 
element CubicFrame 1 0 1 -section 1 -transform 1 -shear 1
fix 0 1 1 1 1 1 1 
getNodeTags  
pattern Plain 1 Linear {load 1 0 0 1 0 0 0 ;
}
integrator LoadControl 10 
analysis Static 
test Residual 1e-10 3 
analyze 1 
getNodeTags  
nodeDisp 1 3 
verify value [nodeDisp 1 3] 0.044376733692 1e-6
