pragma openseespy
model  -ndm 3 -ndf 6
nDMaterial ElasticIsotropic 1 29000.0 0.6183035714285714 
section ShearFiber 1 -GJ 0
fiber  -area 0.0742600042263 -y -3.2621874999999996 -z -6.801356573879552 -warp {{-20.858024791268807 -6.312963117534732 3.2546758728896026} {0 0.0 0}} -material 1 -section 1
fiber  -area 0.07176491729992791 -y 3.0202083333333327 -z -6.700924479166667 -warp {{19.609951500088144 -6.605314234905362 -3.00959338756042} {0 0.0 0}} -material 1 -section 1
fiber  -area 0.06275678013392864 -y 0.2509375 -z 6.816636904761904 -warp {{-1.579839415927409 6.233205776118229 -0.20337014248389912} {0 0.0 0}} -material 1 -section 1
fiber  -area 0.066990625 -y -0.05666666666666667 -z 2.627083333333333 -warp {{0.1329600268892488 2.758437503784193 -0.17000000140712201} {0 0.0 0}} -material 1 -section 1
fiber  -area 0.064757825425092 -y -1.3231249999999997 -z 6.398597579656863 -warp {{8.970881341996783 6.903355309306033 1.3245436048390626} {0 0.0 0}} -material 1 -section 1
fiber  -area 0.066990625 -y -0.05666666666666667 -z 1.444895833333333 -warp {{0.06596940185940466 1.5762500000099964 -0.17000000000394624} {0 0.0 0}} -material 1 -section 1
fiber  -area 0.05863482142857149 -y 0.08364583333333332 -z 6.419970238095238 -warp {{-0.5385963304397793 6.510544686227531 -0.060927319532200236} {0 0.0 0}} -material 1 -section 1
fiber  -area 0.066990625 -y -0.05666666666666667 -z -3.6779166666666665 -warp {{-0.22432338778281924 -3.5465626983205 -0.17000053344082744} {0 0.0 0}} -material 1 -section 1
fiber  -area 0.066990625 -y -0.05666666666666667 -z -0.5254166666666666 -warp {{-0.04568163980779438 -0.3940625000000253 -0.1700000000002814} {0 0.0 0}} -material 1 -section 1
fiber  -area 0.06699062499999993 -y -0.05666666666666667 -z 5.779583333333332 -warp {{0.3118242088320174 5.9393473694139205 -0.18056211104979583} {0 0.0 0}} -material 1 -section 1
fiber  -area 0.06152375488281266 -y 0.4103124999999999 -z -6.390338541666666 -warp {{2.7474579625373603 -6.958095997416726 -0.3570808349130939} {0 0.0 0}} -material 1 -section 1
fiber  -area 0.05863482142857149 -y -0.08364583333333332 -z -6.419970238095238 -warp {{-0.5393981261933227 -6.510791170640328 0.05413270581507773} {0 0.0 0}} -material 1 -section 1
fiber  -area 0.06699062500000008 -y 0.05666666666666667 -z 4.860104166666667 -warp {{-0.2913446869787973 4.72882501674025 0.17020177933954744} {0 0.0 0}} -material 1 -section 1
fiber  -area 0.06699062500000008 -y -0.05666666666666667 -z -4.860104166666667 -warp {{-0.2913447238621026 -4.728825106698576 -0.17020202130903503} {0 0.0 0}} -material 1 -section 1
fiber  -area 0.0708826656053047 -y 2.538958333333333 -z 6.696004354866947 -warp {{-16.49206380630381 6.612398573879108 -2.4987857500225497} {0 0.0 0}} -material 1 -section 1
fiber  -area 0.06635461436039267 -y -1.5537499999999997 -z -6.496810990021008 -warp {{-10.386871453527581 -6.615585971009741 1.5608729401679056} {0 0.0 0}} -material 1 -section 1
fiber  -area 0.066990625 -y 0.05666666666666667 -z 1.7076041666666668 -warp {{-0.11267226481137567 1.5762500000099964 0.17000000002663856} {0 0.0 0}} -material 1 -section 1
fiber  -area 0.07514371676404946 -y -3.0124999999999993 -z 6.504638480392157 -warp {{20.152377913678873 6.600698748532557 3.013894509196046} {0 0.0 0}} -material 1 -section 1
fiber  -area 0.066990625 -y -0.05666666666666667 -z 0.13135416666666666 -warp {{0.021308985192359724 0.0 -0.17000000000023183} {0 0.0 0}} -material 1 -section 1
fiber  -area 0.066990625 -y -0.05666666666666667 -z 3.2838541666666665 -warp {{0.1999506630844762 3.1525000273785264 -0.17000007364277417} {0 0.0 0}} -material 1 -section 1
# ... 174 like lines cut
geomTransf Linear 1 0 0 1 
node 0 0.0 0 0 
node 1 9.200000000000001 0 0 
node 2 18.400000000000002 0 0 
node 3 27.6 0 0 
node 4 36.800000000000004 0 0 
node 5 46.00000000000001 0 0 
node 6 55.2 0 0 
element PrismFrame 1 0 1 -section 1 -transform 1 -shear 1
element PrismFrame 2 1 2 -section 1 -transform 1 -shear 1
element PrismFrame 3 2 3 -section 1 -transform 1 -shear 1
element PrismFrame 4 3 4 -section 1 -transform 1 -shear 1
element PrismFrame 5 4 5 -section 1 -transform 1 -shear 1
element PrismFrame 6 5 6 -section 1 -transform 1 -shear 1
fix 0 1 1 1 1 1 1 
getNodeTags  
pattern Plain 1 Linear {load 6 0 0 1 0 0 0 ;
}
integrator LoadControl 10 
analysis Static 
analyze 1 
getNodeTags  
nodeDisp 6 3 
verify value [nodeDisp 6 3] 0.045267 1e-4
