pragma openseespy
model  -ndm 3 -ndf 6
nDMaterial ElasticIsotropic 1 29000.0 0.2946428571428572 
section ShearFiber 1 -GJ 0
fiber  -area 0.0024582639885040777 -y -0.14561512300458365 -z -6.3829750736447375 -warp {{-0.9688128476321737 -6.786934454042231 -0.04748607401991681} {0 0.0 0}} -material 1 -section 1
fiber  -area 0.001968071740911675 -y 0.0858973084620515 -z -6.445011251646858 -warp {{0.5691715491368978 -6.638781698725674 -0.025275225419181722} {0 0.0 0}} -material 1 -section 1
fiber  -area 0.0026295055799975256 -y 0.2513534165830714 -z 6.449067492681132 -warp {{-1.6787270648428538 6.748091646751558 -0.21094775277580244} {0 0.0 0}} -material 1 -section 1
fiber  -area 0.002796604853338925 -y 0.1014594313673518 -z 6.425207602196014 -warp {{-0.673177510228173 6.678373188777341 0.0226722042843609} {0 0.0 0}} -material 1 -section 1
fiber  -area 0.0022616072114781324 -y 0.1304274710890395 -z 6.220068233014909 -warp {{-0.8284796255483057 6.237688704920163 0.37569994110815824} {0 0.0 0}} -material 1 -section 1
fiber  -area 0.002487779349693777 -y -0.007698820096156869 -z 6.486116300436176 -warp {{0.05109670331340695 6.608789679215294 -0.006552612113755667} {0 0.0 0}} -material 1 -section 1
fiber  -area 0.002460525168736268 -y 0.006084256112897629 -z 6.3298594819992475 -warp {{-0.03978365590231344 6.519855409461657 -0.0004950376384263652} {0 0.0 0}} -material 1 -section 1
fiber  -area 0.0031467887616343357 -y -0.039403531190762286 -z -6.423441977149788 -warp {{-0.2606883599880883 -6.620295706242448 0.004775549538993193} {0 0.0 0}} -material 1 -section 1
fiber  -area 0.0017380861797066988 -y -0.08557062785976706 -z -0.13913505059366446 -warp {{-0.011877430755622309 -0.15014173930102082 -0.06360844248808088} {0 0.0 0}} -material 1 -section 1
fiber  -area 0.0015654750619104728 -y -0.12265660393775457 -z 0.0831423636570512 -warp {{0.01075214397418837 0.09076944080454842 -0.09014781582182761} {0 0.0 0}} -material 1 -section 1
fiber  -area 0.0023834684375634483 -y 0.2593506267351425 -z -6.453786116989534 -warp {{1.732382794936042 -6.781037095117528 -0.17351269995304627} {0 0.0 0}} -material 1 -section 1
fiber  -area 0.0019355233000958175 -y 0.13663742324540615 -z -6.290027468036063 -warp {{0.8932077714354535 -6.70685446890651 0.41895338686964384} {0 0.0 0}} -material 1 -section 1
fiber  -area 0.0014792241013295256 -y -2.0158380814716805 -z 6.653582883495797 -warp {{13.192050678412 6.5700787685478375 2.008684056401818} {0 0.0 0}} -material 1 -section 1
fiber  -area 0.0023669367796510807 -y -0.141628709058663 -z 6.406422074968462 -warp {{0.9423478174493525 6.7429952804200735 0.028915377784184522} {0 0.0 0}} -material 1 -section 1
fiber  -area 0.0017539659194493545 -y 0.10229771528391646 -z 6.487791422499789 -warp {{-0.6772376412402119 6.645742892928298 -0.05197090489409063} {0 0.0 0}} -material 1 -section 1
fiber  -area 0.0025366865046284877 -y -0.28659657212960704 -z -6.551311061739646 -warp {{-1.892896823973695 -6.620894940640611 0.22225152334323678} {0 0.0 0}} -material 1 -section 1
fiber  -area 0.0019815514143507193 -y -0.08578400989106238 -z 6.351877593794479 -warp {{0.5658468683382559 6.602097062112681 -0.0881179473443475} {0 0.0 0}} -material 1 -section 1
fiber  -area 0.0014530087929486317 -y 0.015114274840427261 -z 6.620543455969738 -warp {{-0.09834583824012015 6.508638256145413 -0.005888751647562094} {0 0.0 0}} -material 1 -section 1
fiber  -area 0.0015887492312902244 -y 0.028849544882921505 -z 6.350951673163934 -warp {{-0.18940283777132572 6.61602153720469 0.041105679788470156} {0 0.0 0}} -material 1 -section 1
fiber  -area 0.0017167749137016785 -y -0.0214970341591736 -z 6.343442172962598 -warp {{0.14097283301882668 6.594047676511837 -0.015319052584729478} {0 0.0 0}} -material 1 -section 1
# ... 6343 like lines cut
geomTransf Linear 1 0 0 1 
node 0 0.0 0 0 
node 1 55.2 0 0 
element PrismFrame 1 0 1 -section 1 -transform 1 -shear 0
fix 0 1 1 1 1 1 1 
getNodeTags  
pattern Plain 1 Linear {load 1 0 0 1 0 0 0 ;
}
integrator LoadControl 10 
analysis Static 
test Residual 1e-10 3 
analyze 1 
getNodeTags  
nodeDisp 1 3 
verify value [nodeDisp 1 3] 0.040816424636 1e-6
